---------- Begin Simulation Statistics ----------
simSeconds                                   0.010000                       # Number of seconds simulated (Second)
simTicks                                  10000000000                       # Number of ticks simulated (Tick)
finalTick                                 10000000000                       # Number of ticks from beginning of simulation (restored from checkpoints and never reset) (Tick)
simFreq                                  1000000000000                       # The number of ticks per simulated second ((Tick/Second))
hostSeconds                                     39.06                       # Real time elapsed on the host (Second)
hostTickRate                                256011312                       # The number of ticks simulated per host second (ticks/s) ((Tick/Second))
hostMemory                                    4368856                       # Number of bytes of host memory used (Byte)
simInsts                                     17951008                       # Number of instructions simulated (Count)
simOps                                       17951056                       # Number of ops (including micro ops) simulated (Count)
hostInstRate                                   459546                       # Simulator instruction rate (inst/s) ((Count/Second))
hostOpRate                                     459546                       # Simulator op (including micro ops) rate (op/s) ((Count/Second))
system.cachebus.transDist::ReadResp              2796                       # Transaction distribution (Count)
system.cachebus.transDist::WritebackDirty       799156                       # Transaction distribution (Count)
system.cachebus.transDist::CleanEvict            4737                       # Transaction distribution (Count)
system.cachebus.transDist::ReadExReq           402108                       # Transaction distribution (Count)
system.cachebus.transDist::ReadExResp          402104                       # Transaction distribution (Count)
system.cachebus.transDist::ReadSharedReq         2796                       # Transaction distribution (Count)
system.cachebus.pktCount_system.l1dcaches0.mem_side_port::system.l2cache.cpu_side_port       605607                       # Packet count per connected requestor and responder (Count)
system.cachebus.pktCount_system.l1icaches0.mem_side_port::system.l2cache.cpu_side_port          744                       # Packet count per connected requestor and responder (Count)
system.cachebus.pktCount_system.l1dcaches1.mem_side_port::system.l2cache.cpu_side_port       605847                       # Packet count per connected requestor and responder (Count)
system.cachebus.pktCount_system.l1icaches1.mem_side_port::system.l2cache.cpu_side_port          744                       # Packet count per connected requestor and responder (Count)
system.cachebus.pktCount::total               1212942                       # Packet count per connected requestor and responder (Count)
system.cachebus.pktSize_system.l1dcaches0.mem_side_port::system.l2cache.cpu_side_port     25764288                       # Cumulative packet size per connected requestor and responder (Byte)
system.cachebus.pktSize_system.l1icaches0.mem_side_port::system.l2cache.cpu_side_port        23744                       # Cumulative packet size per connected requestor and responder (Byte)
system.cachebus.pktSize_system.l1dcaches1.mem_side_port::system.l2cache.cpu_side_port     25774528                       # Cumulative packet size per connected requestor and responder (Byte)
system.cachebus.pktSize_system.l1icaches1.mem_side_port::system.l2cache.cpu_side_port        23744                       # Cumulative packet size per connected requestor and responder (Byte)
system.cachebus.pktSize::total               51586304                       # Cumulative packet size per connected requestor and responder (Byte)
system.cachebus.snoops                         400755                       # Total snoops (Count)
system.cachebus.snoopTraffic                 25473280                       # Total snoop traffic (Byte)
system.cachebus.snoopFanout::samples           805659                       # Request fanout histogram (Count)
system.cachebus.snoopFanout::mean            0.000922                       # Request fanout histogram (Count)
system.cachebus.snoopFanout::stdev           0.030354                       # Request fanout histogram (Count)
system.cachebus.snoopFanout::underflows             0      0.00%      0.00% # Request fanout histogram (Count)
system.cachebus.snoopFanout::0                 804916     99.91%     99.91% # Request fanout histogram (Count)
system.cachebus.snoopFanout::1                    743      0.09%    100.00% # Request fanout histogram (Count)
system.cachebus.snoopFanout::2                      0      0.00%    100.00% # Request fanout histogram (Count)
system.cachebus.snoopFanout::3                      0      0.00%    100.00% # Request fanout histogram (Count)
system.cachebus.snoopFanout::4                      0      0.00%    100.00% # Request fanout histogram (Count)
system.cachebus.snoopFanout::overflows              0      0.00%    100.00% # Request fanout histogram (Count)
system.cachebus.snoopFanout::min_value              0                       # Request fanout histogram (Count)
system.cachebus.snoopFanout::max_value              1                       # Request fanout histogram (Count)
system.cachebus.snoopFanout::total             805659                       # Request fanout histogram (Count)
system.cachebus.power_state.pwrStateResidencyTicks::UNDEFINED  10000000000                       # Cumulative time (in ticks) in various power states (Tick)
system.cachebus.reqLayer0.occupancy         803391138                       # Layer occupancy (ticks) (Tick)
system.cachebus.reqLayer0.utilization             0.1                       # Layer utilization (Ratio)
system.cachebus.respLayer0.occupancy        336394935                       # Layer occupancy (ticks) (Tick)
system.cachebus.respLayer0.utilization            0.0                       # Layer utilization (Ratio)
system.cachebus.respLayer1.occupancy           617715                       # Layer occupancy (ticks) (Tick)
system.cachebus.respLayer1.utilization            0.0                       # Layer utilization (Ratio)
system.cachebus.respLayer2.occupancy        336528135                       # Layer occupancy (ticks) (Tick)
system.cachebus.respLayer2.utilization            0.0                       # Layer utilization (Ratio)
system.cachebus.respLayer3.occupancy           617715                       # Layer occupancy (ticks) (Tick)
system.cachebus.respLayer3.utilization            0.0                       # Layer utilization (Ratio)
system.cachebus.snoop_filter.totRequests       808042                       # Total number of requests made to the snoop filter. (Count)
system.cachebus.snoop_filter.hitSingleRequests       403138                       # Number of requests hitting in the snoop filter with a single holder of the requested data. (Count)
system.cachebus.snoop_filter.hitMultiRequests            0                       # Number of requests hitting in the snoop filter with multiple (>1) holders of the requested data. (Count)
system.cachebus.snoop_filter.totSnoops            743                       # Total number of snoops made to the snoop filter. (Count)
system.cachebus.snoop_filter.hitSingleSnoops          743                       # Number of snoops hitting in the snoop filter with a single holder of the requested data. (Count)
system.cachebus.snoop_filter.hitMultiSnoops            0                       # Number of snoops hitting in the snoop filter with multiple (>1) holders of the requested data. (Count)
system.clk_domain.clock                           333                       # Clock period in ticks (Tick)
system.clk_domain.voltage_domain.voltage            1                       # Voltage in Volts (Volt)
system.cpu0.numCycles                        30029935                       # Number of cpu cycles simulated (Cycle)
system.cpu0.cpi                              3.346421                       # CPI: cycles per instruction (core level) ((Cycle/Count))
system.cpu0.ipc                              0.298827                       # IPC: instructions per cycle (core level) ((Count/Cycle))
system.cpu0.numWorkItemsStarted                     0                       # Number of work items this cpu started (Count)
system.cpu0.numWorkItemsCompleted                   0                       # Number of work items this cpu completed (Count)
system.cpu0.branchPred.lookups_0::NoBranch           25      0.00%      0.00% # Number of BP lookups (Count)
system.cpu0.branchPred.lookups_0::Return         2293      0.27%      0.27% # Number of BP lookups (Count)
system.cpu0.branchPred.lookups_0::CallDirect         2427      0.29%      0.56% # Number of BP lookups (Count)
system.cpu0.branchPred.lookups_0::CallIndirect           10      0.00%      0.56% # Number of BP lookups (Count)
system.cpu0.branchPred.lookups_0::DirectCond       834378     98.80%     99.36% # Number of BP lookups (Count)
system.cpu0.branchPred.lookups_0::DirectUncond         3320      0.39%     99.76% # Number of BP lookups (Count)
system.cpu0.branchPred.lookups_0::IndirectCond            0      0.00%     99.76% # Number of BP lookups (Count)
system.cpu0.branchPred.lookups_0::IndirectUncond         2061      0.24%    100.00% # Number of BP lookups (Count)
system.cpu0.branchPred.lookups_0::total        844514                       # Number of BP lookups (Count)
system.cpu0.branchPred.squashes_0::NoBranch           11      0.85%      0.85% # Number of branches that got squashed (completely removed) as an earlier branch was mispredicted. (Count)
system.cpu0.branchPred.squashes_0::Return           96      7.43%      8.28% # Number of branches that got squashed (completely removed) as an earlier branch was mispredicted. (Count)
system.cpu0.branchPred.squashes_0::CallDirect          233     18.03%     26.32% # Number of branches that got squashed (completely removed) as an earlier branch was mispredicted. (Count)
system.cpu0.branchPred.squashes_0::CallIndirect            6      0.46%     26.78% # Number of branches that got squashed (completely removed) as an earlier branch was mispredicted. (Count)
system.cpu0.branchPred.squashes_0::DirectCond          795     61.53%     88.31% # Number of branches that got squashed (completely removed) as an earlier branch was mispredicted. (Count)
system.cpu0.branchPred.squashes_0::DirectUncond          136     10.53%     98.84% # Number of branches that got squashed (completely removed) as an earlier branch was mispredicted. (Count)
system.cpu0.branchPred.squashes_0::IndirectCond            0      0.00%     98.84% # Number of branches that got squashed (completely removed) as an earlier branch was mispredicted. (Count)
system.cpu0.branchPred.squashes_0::IndirectUncond           15      1.16%    100.00% # Number of branches that got squashed (completely removed) as an earlier branch was mispredicted. (Count)
system.cpu0.branchPred.squashes_0::total         1292                       # Number of branches that got squashed (completely removed) as an earlier branch was mispredicted. (Count)
system.cpu0.branchPred.corrected_0::NoBranch           14      2.88%      2.88% # Number of branches that got corrected but not yet commited. Branches get corrected by decode or after execute. Also a branch misprediction can be detected out-of-order. Therefore, a corrected branch might not end up beeing committed in case an even earlier branch was mispredicted (Count)
system.cpu0.branchPred.corrected_0::Return            7      1.44%      4.32% # Number of branches that got corrected but not yet commited. Branches get corrected by decode or after execute. Also a branch misprediction can be detected out-of-order. Therefore, a corrected branch might not end up beeing committed in case an even earlier branch was mispredicted (Count)
system.cpu0.branchPred.corrected_0::CallDirect           93     19.14%     23.46% # Number of branches that got corrected but not yet commited. Branches get corrected by decode or after execute. Also a branch misprediction can be detected out-of-order. Therefore, a corrected branch might not end up beeing committed in case an even earlier branch was mispredicted (Count)
system.cpu0.branchPred.corrected_0::CallIndirect            4      0.82%     24.28% # Number of branches that got corrected but not yet commited. Branches get corrected by decode or after execute. Also a branch misprediction can be detected out-of-order. Therefore, a corrected branch might not end up beeing committed in case an even earlier branch was mispredicted (Count)
system.cpu0.branchPred.corrected_0::DirectCond          303     62.35%     86.63% # Number of branches that got corrected but not yet commited. Branches get corrected by decode or after execute. Also a branch misprediction can be detected out-of-order. Therefore, a corrected branch might not end up beeing committed in case an even earlier branch was mispredicted (Count)
system.cpu0.branchPred.corrected_0::DirectUncond           54     11.11%     97.74% # Number of branches that got corrected but not yet commited. Branches get corrected by decode or after execute. Also a branch misprediction can be detected out-of-order. Therefore, a corrected branch might not end up beeing committed in case an even earlier branch was mispredicted (Count)
system.cpu0.branchPred.corrected_0::IndirectCond            0      0.00%     97.74% # Number of branches that got corrected but not yet commited. Branches get corrected by decode or after execute. Also a branch misprediction can be detected out-of-order. Therefore, a corrected branch might not end up beeing committed in case an even earlier branch was mispredicted (Count)
system.cpu0.branchPred.corrected_0::IndirectUncond           11      2.26%    100.00% # Number of branches that got corrected but not yet commited. Branches get corrected by decode or after execute. Also a branch misprediction can be detected out-of-order. Therefore, a corrected branch might not end up beeing committed in case an even earlier branch was mispredicted (Count)
system.cpu0.branchPred.corrected_0::total          486                       # Number of branches that got corrected but not yet commited. Branches get corrected by decode or after execute. Also a branch misprediction can be detected out-of-order. Therefore, a corrected branch might not end up beeing committed in case an even earlier branch was mispredicted (Count)
system.cpu0.branchPred.earlyResteers_0::NoBranch            0                       # Number of branches that got redirected after decode. (Count)
system.cpu0.branchPred.earlyResteers_0::Return            0                       # Number of branches that got redirected after decode. (Count)
system.cpu0.branchPred.earlyResteers_0::CallDirect            0                       # Number of branches that got redirected after decode. (Count)
system.cpu0.branchPred.earlyResteers_0::CallIndirect            0                       # Number of branches that got redirected after decode. (Count)
system.cpu0.branchPred.earlyResteers_0::DirectCond            0                       # Number of branches that got redirected after decode. (Count)
system.cpu0.branchPred.earlyResteers_0::DirectUncond            0                       # Number of branches that got redirected after decode. (Count)
system.cpu0.branchPred.earlyResteers_0::IndirectCond            0                       # Number of branches that got redirected after decode. (Count)
system.cpu0.branchPred.earlyResteers_0::IndirectUncond            0                       # Number of branches that got redirected after decode. (Count)
system.cpu0.branchPred.earlyResteers_0::total            0                       # Number of branches that got redirected after decode. (Count)
system.cpu0.branchPred.committed_0::NoBranch           14      0.00%      0.00% # Number of branches finally committed  (Count)
system.cpu0.branchPred.committed_0::Return         2197      0.26%      0.26% # Number of branches finally committed  (Count)
system.cpu0.branchPred.committed_0::CallDirect         2194      0.26%      0.52% # Number of branches finally committed  (Count)
system.cpu0.branchPred.committed_0::CallIndirect            4      0.00%      0.52% # Number of branches finally committed  (Count)
system.cpu0.branchPred.committed_0::DirectCond       833580     98.86%     99.38% # Number of branches finally committed  (Count)
system.cpu0.branchPred.committed_0::DirectUncond         3184      0.38%     99.76% # Number of branches finally committed  (Count)
system.cpu0.branchPred.committed_0::IndirectCond            0      0.00%     99.76% # Number of branches finally committed  (Count)
system.cpu0.branchPred.committed_0::IndirectUncond         2046      0.24%    100.00% # Number of branches finally committed  (Count)
system.cpu0.branchPred.committed_0::total       843219                       # Number of branches finally committed  (Count)
system.cpu0.branchPred.mispredicted_0::NoBranch           14      2.88%      2.88% # Number of committed branches that were mispredicted. (Count)
system.cpu0.branchPred.mispredicted_0::Return            7      1.44%      4.32% # Number of committed branches that were mispredicted. (Count)
system.cpu0.branchPred.mispredicted_0::CallDirect           93     19.14%     23.46% # Number of committed branches that were mispredicted. (Count)
system.cpu0.branchPred.mispredicted_0::CallIndirect            4      0.82%     24.28% # Number of committed branches that were mispredicted. (Count)
system.cpu0.branchPred.mispredicted_0::DirectCond          303     62.35%     86.63% # Number of committed branches that were mispredicted. (Count)
system.cpu0.branchPred.mispredicted_0::DirectUncond           54     11.11%     97.74% # Number of committed branches that were mispredicted. (Count)
system.cpu0.branchPred.mispredicted_0::IndirectCond            0      0.00%     97.74% # Number of committed branches that were mispredicted. (Count)
system.cpu0.branchPred.mispredicted_0::IndirectUncond           11      2.26%    100.00% # Number of committed branches that were mispredicted. (Count)
system.cpu0.branchPred.mispredicted_0::total          486                       # Number of committed branches that were mispredicted. (Count)
system.cpu0.branchPred.targetProvider_0::NoTarget        18500      2.19%      2.19% # The component providing the target for taken branches (Count)
system.cpu0.branchPred.targetProvider_0::BTB       821680     97.30%     99.49% # The component providing the target for taken branches (Count)
system.cpu0.branchPred.targetProvider_0::RAS         2291      0.27%     99.76% # The component providing the target for taken branches (Count)
system.cpu0.branchPred.targetProvider_0::Indirect         2043      0.24%    100.00% # The component providing the target for taken branches (Count)
system.cpu0.branchPred.targetProvider_0::total       844514                       # The component providing the target for taken branches (Count)
system.cpu0.branchPred.targetWrong_0::NoBranch          421     89.19%     89.19% # Number of branches where the target was incorrect or not available at prediction time. (Count)
system.cpu0.branchPred.targetWrong_0::Return           44      9.32%     98.52% # Number of branches where the target was incorrect or not available at prediction time. (Count)
system.cpu0.branchPred.targetWrong_0::CallDirect            7      1.48%    100.00% # Number of branches where the target was incorrect or not available at prediction time. (Count)
system.cpu0.branchPred.targetWrong_0::CallIndirect            0      0.00%    100.00% # Number of branches where the target was incorrect or not available at prediction time. (Count)
system.cpu0.branchPred.targetWrong_0::DirectCond            0      0.00%    100.00% # Number of branches where the target was incorrect or not available at prediction time. (Count)
system.cpu0.branchPred.targetWrong_0::DirectUncond            0      0.00%    100.00% # Number of branches where the target was incorrect or not available at prediction time. (Count)
system.cpu0.branchPred.targetWrong_0::IndirectCond            0      0.00%    100.00% # Number of branches where the target was incorrect or not available at prediction time. (Count)
system.cpu0.branchPred.targetWrong_0::IndirectUncond            0      0.00%    100.00% # Number of branches where the target was incorrect or not available at prediction time. (Count)
system.cpu0.branchPred.targetWrong_0::total          472                       # Number of branches where the target was incorrect or not available at prediction time. (Count)
system.cpu0.branchPred.condPredicted           834403                       # Number of conditional branches predicted (Count)
system.cpu0.branchPred.condPredictedTaken       816706                       # Number of conditional branches predicted as taken (Count)
system.cpu0.branchPred.condIncorrect              486                       # Number of conditional branches incorrect (Count)
system.cpu0.branchPred.predTakenBTBMiss           176                       # Number of branches predicted taken but missed in BTB (Count)
system.cpu0.branchPred.NotTakenMispredicted          443                       # Number branches predicted 'not taken' but turned out to be taken (Count)
system.cpu0.branchPred.TakenMispredicted           43                       # Number branches predicted taken but are actually not taken (Count)
system.cpu0.branchPred.BTBLookups              844514                       # Number of BTB lookups (Count)
system.cpu0.branchPred.BTBUpdates                 407                       # Number of BTB updates (Count)
system.cpu0.branchPred.BTBHits                 824978                       # Number of BTB hits (Count)
system.cpu0.branchPred.BTBHitRatio           0.976867                       # BTB Hit Ratio (Ratio)
system.cpu0.branchPred.BTBMispredicted            289                       # Number BTB mispredictions. No target found or target wrong (Count)
system.cpu0.branchPred.indirectLookups           2071                       # Number of indirect predictor lookups. (Count)
system.cpu0.branchPred.indirectHits              2043                       # Number of indirect target hits. (Count)
system.cpu0.branchPred.indirectMisses              28                       # Number of indirect misses. (Count)
system.cpu0.branchPred.indirectMispredicted            0                       # Number of mispredicted indirect branches. (Count)
system.cpu0.branchPred.btb.lookups::NoBranch           25      0.00%      0.00% # Number of BTB lookups (Count)
system.cpu0.branchPred.btb.lookups::Return         2293      0.27%      0.27% # Number of BTB lookups (Count)
system.cpu0.branchPred.btb.lookups::CallDirect         2427      0.29%      0.56% # Number of BTB lookups (Count)
system.cpu0.branchPred.btb.lookups::CallIndirect           10      0.00%      0.56% # Number of BTB lookups (Count)
system.cpu0.branchPred.btb.lookups::DirectCond       834378     98.80%     99.36% # Number of BTB lookups (Count)
system.cpu0.branchPred.btb.lookups::DirectUncond         3320      0.39%     99.76% # Number of BTB lookups (Count)
system.cpu0.branchPred.btb.lookups::IndirectCond            0      0.00%     99.76% # Number of BTB lookups (Count)
system.cpu0.branchPred.btb.lookups::IndirectUncond         2061      0.24%    100.00% # Number of BTB lookups (Count)
system.cpu0.branchPred.btb.lookups::total       844514                       # Number of BTB lookups (Count)
system.cpu0.branchPred.btb.misses::NoBranch           25      0.13%      0.13% # Number of BTB misses (Count)
system.cpu0.branchPred.btb.misses::Return         2293     11.74%     11.87% # Number of BTB misses (Count)
system.cpu0.branchPred.btb.misses::CallDirect          294      1.50%     13.37% # Number of BTB misses (Count)
system.cpu0.branchPred.btb.misses::CallIndirect           10      0.05%     13.42% # Number of BTB misses (Count)
system.cpu0.branchPred.btb.misses::DirectCond        14688     75.18%     88.61% # Number of BTB misses (Count)
system.cpu0.branchPred.btb.misses::DirectUncond          165      0.84%     89.45% # Number of BTB misses (Count)
system.cpu0.branchPred.btb.misses::IndirectCond            0      0.00%     89.45% # Number of BTB misses (Count)
system.cpu0.branchPred.btb.misses::IndirectUncond         2061     10.55%    100.00% # Number of BTB misses (Count)
system.cpu0.branchPred.btb.misses::total        19536                       # Number of BTB misses (Count)
system.cpu0.branchPred.btb.updates::NoBranch            0      0.00%      0.00% # Number of BTB updates (Count)
system.cpu0.branchPred.btb.updates::Return            0      0.00%      0.00% # Number of BTB updates (Count)
system.cpu0.branchPred.btb.updates::CallDirect           93     22.85%     22.85% # Number of BTB updates (Count)
system.cpu0.branchPred.btb.updates::CallIndirect            0      0.00%     22.85% # Number of BTB updates (Count)
system.cpu0.branchPred.btb.updates::DirectCond          260     63.88%     86.73% # Number of BTB updates (Count)
system.cpu0.branchPred.btb.updates::DirectUncond           54     13.27%    100.00% # Number of BTB updates (Count)
system.cpu0.branchPred.btb.updates::IndirectCond            0      0.00%    100.00% # Number of BTB updates (Count)
system.cpu0.branchPred.btb.updates::IndirectUncond            0      0.00%    100.00% # Number of BTB updates (Count)
system.cpu0.branchPred.btb.updates::total          407                       # Number of BTB updates (Count)
system.cpu0.branchPred.btb.mispredict::NoBranch            0      0.00%      0.00% # Number of BTB mispredictions. No target found or target wrong. (Count)
system.cpu0.branchPred.btb.mispredict::Return            0      0.00%      0.00% # Number of BTB mispredictions. No target found or target wrong. (Count)
system.cpu0.branchPred.btb.mispredict::CallDirect           93     22.85%     22.85% # Number of BTB mispredictions. No target found or target wrong. (Count)
system.cpu0.branchPred.btb.mispredict::CallIndirect            0      0.00%     22.85% # Number of BTB mispredictions. No target found or target wrong. (Count)
system.cpu0.branchPred.btb.mispredict::DirectCond          260     63.88%     86.73% # Number of BTB mispredictions. No target found or target wrong. (Count)
system.cpu0.branchPred.btb.mispredict::DirectUncond           54     13.27%    100.00% # Number of BTB mispredictions. No target found or target wrong. (Count)
system.cpu0.branchPred.btb.mispredict::IndirectCond            0      0.00%    100.00% # Number of BTB mispredictions. No target found or target wrong. (Count)
system.cpu0.branchPred.btb.mispredict::IndirectUncond            0      0.00%    100.00% # Number of BTB mispredictions. No target found or target wrong. (Count)
system.cpu0.branchPred.btb.mispredict::total          407                       # Number of BTB mispredictions. No target found or target wrong. (Count)
system.cpu0.branchPred.btb.power_state.pwrStateResidencyTicks::UNDEFINED  10000000000                       # Cumulative time (in ticks) in various power states (Tick)
system.cpu0.branchPred.indirectBranchPred.lookups         2071                       # Number of lookups (Count)
system.cpu0.branchPred.indirectBranchPred.hits         2043                       # Number of hits of a tag (Count)
system.cpu0.branchPred.indirectBranchPred.misses           28                       # Number of misses (Count)
system.cpu0.branchPred.indirectBranchPred.targetRecords           15                       # Number of targets that where recorded/installed in the cache (Count)
system.cpu0.branchPred.indirectBranchPred.indirectRecords         2086                       # Number of indirect branches/calls recorded in the indirect hist (Count)
system.cpu0.branchPred.indirectBranchPred.speculativeOverflows            9                       # Number of times more than the allowed capacity for speculative branches/calls where in flight and destroy the path history (Count)
system.cpu0.branchPred.ras.pushes                2533                       # Number of times a PC was pushed onto the RAS (Count)
system.cpu0.branchPred.ras.pops                  2532                       # Number of times a PC was poped from the RAS (Count)
system.cpu0.branchPred.ras.squashes               335                       # Number of times the stack operation was squashed due to wrong speculation. (Count)
system.cpu0.branchPred.ras.used                  2197                       # Number of times the RAS is the provider (Count)
system.cpu0.branchPred.ras.correct               2190                       # Number of times the RAS is the provider and the prediction is correct (Count)
system.cpu0.branchPred.ras.incorrect                7                       # Number of times the RAS is the provider and the prediction is wrong (Count)
system.cpu0.commitStats0.numInsts             8973746                       # Number of instructions committed (thread level) (Count)
system.cpu0.commitStats0.numOps               8973770                       # Number of ops (including micro ops) committed (thread level) (Count)
system.cpu0.commitStats0.numInstsNotNOP             0                       # Number of instructions committed excluding NOPs or prefetches (Count)
system.cpu0.commitStats0.numOpsNotNOP               0                       # Number of Ops (including micro ops) Simulated (Count)
system.cpu0.commitStats0.cpi                 3.346421                       # CPI: cycles per instruction (thread level) ((Cycle/Count))
system.cpu0.commitStats0.ipc                 0.298827                       # IPC: instructions per cycle (thread level) ((Count/Cycle))
system.cpu0.commitStats0.numMemRefs                 0                       # Number of memory references committed (Count)
system.cpu0.commitStats0.numFpInsts                 0                       # Number of float instructions (Count)
system.cpu0.commitStats0.numIntInsts                0                       # Number of integer instructions (Count)
system.cpu0.commitStats0.numLoadInsts               0                       # Number of load instructions (Count)
system.cpu0.commitStats0.numStoreInsts              0                       # Number of store instructions (Count)
system.cpu0.commitStats0.numVecInsts                0                       # Number of vector instructions (Count)
system.cpu0.commitStats0.committedInstType::No_OpClass           56      0.00%      0.00% # Class of committed instruction. (Count)
system.cpu0.commitStats0.committedInstType::IntAlu      4926323     54.90%     54.90% # Class of committed instruction. (Count)
system.cpu0.commitStats0.committedInstType::IntMult           11      0.00%     54.90% # Class of committed instruction. (Count)
system.cpu0.commitStats0.committedInstType::IntDiv            3      0.00%     54.90% # Class of committed instruction. (Count)
system.cpu0.commitStats0.committedInstType::FloatAdd            0      0.00%     54.90% # Class of committed instruction. (Count)
system.cpu0.commitStats0.committedInstType::FloatCmp            0      0.00%     54.90% # Class of committed instruction. (Count)
system.cpu0.commitStats0.committedInstType::FloatCvt       803577      8.95%     63.85% # Class of committed instruction. (Count)
system.cpu0.commitStats0.committedInstType::FloatMult      1607154     17.91%     81.76% # Class of committed instruction. (Count)
system.cpu0.commitStats0.committedInstType::FloatMultAcc            0      0.00%     81.76% # Class of committed instruction. (Count)
system.cpu0.commitStats0.committedInstType::FloatDiv            0      0.00%     81.76% # Class of committed instruction. (Count)
system.cpu0.commitStats0.committedInstType::FloatMisc            0      0.00%     81.76% # Class of committed instruction. (Count)
system.cpu0.commitStats0.committedInstType::FloatSqrt            0      0.00%     81.76% # Class of committed instruction. (Count)
system.cpu0.commitStats0.committedInstType::SimdAdd            0      0.00%     81.76% # Class of committed instruction. (Count)
system.cpu0.commitStats0.committedInstType::SimdAddAcc            0      0.00%     81.76% # Class of committed instruction. (Count)
system.cpu0.commitStats0.committedInstType::SimdAlu            0      0.00%     81.76% # Class of committed instruction. (Count)
system.cpu0.commitStats0.committedInstType::SimdCmp            0      0.00%     81.76% # Class of committed instruction. (Count)
system.cpu0.commitStats0.committedInstType::SimdCvt            0      0.00%     81.76% # Class of committed instruction. (Count)
system.cpu0.commitStats0.committedInstType::SimdMisc            0      0.00%     81.76% # Class of committed instruction. (Count)
system.cpu0.commitStats0.committedInstType::SimdMult            0      0.00%     81.76% # Class of committed instruction. (Count)
system.cpu0.commitStats0.committedInstType::SimdMultAcc            0      0.00%     81.76% # Class of committed instruction. (Count)
system.cpu0.commitStats0.committedInstType::SimdMatMultAcc            0      0.00%     81.76% # Class of committed instruction. (Count)
system.cpu0.commitStats0.committedInstType::SimdShift            0      0.00%     81.76% # Class of committed instruction. (Count)
system.cpu0.commitStats0.committedInstType::SimdShiftAcc            0      0.00%     81.76% # Class of committed instruction. (Count)
system.cpu0.commitStats0.committedInstType::SimdDiv            0      0.00%     81.76% # Class of committed instruction. (Count)
system.cpu0.commitStats0.committedInstType::SimdSqrt            0      0.00%     81.76% # Class of committed instruction. (Count)
system.cpu0.commitStats0.committedInstType::SimdFloatAdd            0      0.00%     81.76% # Class of committed instruction. (Count)
system.cpu0.commitStats0.committedInstType::SimdFloatAlu            0      0.00%     81.76% # Class of committed instruction. (Count)
system.cpu0.commitStats0.committedInstType::SimdFloatCmp            0      0.00%     81.76% # Class of committed instruction. (Count)
system.cpu0.commitStats0.committedInstType::SimdFloatCvt            0      0.00%     81.76% # Class of committed instruction. (Count)
system.cpu0.commitStats0.committedInstType::SimdFloatDiv            0      0.00%     81.76% # Class of committed instruction. (Count)
system.cpu0.commitStats0.committedInstType::SimdFloatMisc            0      0.00%     81.76% # Class of committed instruction. (Count)
system.cpu0.commitStats0.committedInstType::SimdFloatMult            0      0.00%     81.76% # Class of committed instruction. (Count)
system.cpu0.commitStats0.committedInstType::SimdFloatMultAcc            0      0.00%     81.76% # Class of committed instruction. (Count)
system.cpu0.commitStats0.committedInstType::SimdFloatMatMultAcc            0      0.00%     81.76% # Class of committed instruction. (Count)
system.cpu0.commitStats0.committedInstType::SimdFloatSqrt            0      0.00%     81.76% # Class of committed instruction. (Count)
system.cpu0.commitStats0.committedInstType::SimdReduceAdd            0      0.00%     81.76% # Class of committed instruction. (Count)
system.cpu0.commitStats0.committedInstType::SimdReduceAlu            0      0.00%     81.76% # Class of committed instruction. (Count)
system.cpu0.commitStats0.committedInstType::SimdReduceCmp            0      0.00%     81.76% # Class of committed instruction. (Count)
system.cpu0.commitStats0.committedInstType::SimdFloatReduceAdd            0      0.00%     81.76% # Class of committed instruction. (Count)
system.cpu0.commitStats0.committedInstType::SimdFloatReduceCmp            0      0.00%     81.76% # Class of committed instruction. (Count)
system.cpu0.commitStats0.committedInstType::SimdAes            0      0.00%     81.76% # Class of committed instruction. (Count)
system.cpu0.commitStats0.committedInstType::SimdAesMix            0      0.00%     81.76% # Class of committed instruction. (Count)
system.cpu0.commitStats0.committedInstType::SimdSha1Hash            0      0.00%     81.76% # Class of committed instruction. (Count)
system.cpu0.commitStats0.committedInstType::SimdSha1Hash2            0      0.00%     81.76% # Class of committed instruction. (Count)
system.cpu0.commitStats0.committedInstType::SimdSha256Hash            0      0.00%     81.76% # Class of committed instruction. (Count)
system.cpu0.commitStats0.committedInstType::SimdSha256Hash2            0      0.00%     81.76% # Class of committed instruction. (Count)
system.cpu0.commitStats0.committedInstType::SimdShaSigma2            0      0.00%     81.76% # Class of committed instruction. (Count)
system.cpu0.commitStats0.committedInstType::SimdShaSigma3            0      0.00%     81.76% # Class of committed instruction. (Count)
system.cpu0.commitStats0.committedInstType::SimdPredAlu            0      0.00%     81.76% # Class of committed instruction. (Count)
system.cpu0.commitStats0.committedInstType::Matrix            0      0.00%     81.76% # Class of committed instruction. (Count)
system.cpu0.commitStats0.committedInstType::MatrixMov            0      0.00%     81.76% # Class of committed instruction. (Count)
system.cpu0.commitStats0.committedInstType::MatrixOP            0      0.00%     81.76% # Class of committed instruction. (Count)
system.cpu0.commitStats0.committedInstType::MemRead        20876      0.23%     81.99% # Class of committed instruction. (Count)
system.cpu0.commitStats0.committedInstType::MemWrite         5464      0.06%     82.06% # Class of committed instruction. (Count)
system.cpu0.commitStats0.committedInstType::FloatMemRead            2      0.00%     82.06% # Class of committed instruction. (Count)
system.cpu0.commitStats0.committedInstType::FloatMemWrite      1610304     17.94%    100.00% # Class of committed instruction. (Count)
system.cpu0.commitStats0.committedInstType::IprAccess            0      0.00%    100.00% # Class of committed instruction. (Count)
system.cpu0.commitStats0.committedInstType::InstPrefetch            0      0.00%    100.00% # Class of committed instruction. (Count)
system.cpu0.commitStats0.committedInstType::SimdUnitStrideLoad            0      0.00%    100.00% # Class of committed instruction. (Count)
system.cpu0.commitStats0.committedInstType::SimdUnitStrideStore            0      0.00%    100.00% # Class of committed instruction. (Count)
system.cpu0.commitStats0.committedInstType::SimdUnitStrideMaskLoad            0      0.00%    100.00% # Class of committed instruction. (Count)
system.cpu0.commitStats0.committedInstType::SimdUnitStrideMaskStore            0      0.00%    100.00% # Class of committed instruction. (Count)
system.cpu0.commitStats0.committedInstType::SimdStridedLoad            0      0.00%    100.00% # Class of committed instruction. (Count)
system.cpu0.commitStats0.committedInstType::SimdStridedStore            0      0.00%    100.00% # Class of committed instruction. (Count)
system.cpu0.commitStats0.committedInstType::SimdIndexedLoad            0      0.00%    100.00% # Class of committed instruction. (Count)
system.cpu0.commitStats0.committedInstType::SimdIndexedStore            0      0.00%    100.00% # Class of committed instruction. (Count)
system.cpu0.commitStats0.committedInstType::SimdWholeRegisterLoad            0      0.00%    100.00% # Class of committed instruction. (Count)
system.cpu0.commitStats0.committedInstType::SimdWholeRegisterStore            0      0.00%    100.00% # Class of committed instruction. (Count)
system.cpu0.commitStats0.committedInstType::SimdUnitStrideFaultOnlyFirstLoad            0      0.00%    100.00% # Class of committed instruction. (Count)
system.cpu0.commitStats0.committedInstType::SimdUnitStrideSegmentedLoad            0      0.00%    100.00% # Class of committed instruction. (Count)
system.cpu0.commitStats0.committedInstType::SimdUnitStrideSegmentedStore            0      0.00%    100.00% # Class of committed instruction. (Count)
system.cpu0.commitStats0.committedInstType::SimdExt            0      0.00%    100.00% # Class of committed instruction. (Count)
system.cpu0.commitStats0.committedInstType::SimdFloatExt            0      0.00%    100.00% # Class of committed instruction. (Count)
system.cpu0.commitStats0.committedInstType::SimdConfig            0      0.00%    100.00% # Class of committed instruction. (Count)
system.cpu0.commitStats0.committedInstType::total      8973770                       # Class of committed instruction. (Count)
system.cpu0.executeStats0.numInsts                  0                       # Number of executed instructions (Count)
system.cpu0.executeStats0.numNop                    0                       # Number of nop insts executed (Count)
system.cpu0.executeStats0.numBranches               0                       # Number of branches executed (Count)
system.cpu0.executeStats0.numLoadInsts              0                       # Number of load instructions executed (Count)
system.cpu0.executeStats0.numStoreInsts             0                       # Number of stores executed (Count)
system.cpu0.executeStats0.instRate                  0                       # Inst execution rate ((Count/Cycle))
system.cpu0.executeStats0.numFpRegWrites            0                       # Number of times the floating registers were written (Count)
system.cpu0.executeStats0.numMemRefs                0                       # Number of memory refs (Count)
system.cpu0.executeStats0.numVecAluAccesses            0                       # Number of vector alu accesses (Count)
system.cpu0.executeStats0.numDiscardedOps         9374                       # Number of ops (including micro ops) which were discarded before commit (Count)
system.cpu0.fetch2.intInstructions            4951222                       # Number of integer instructions successfully decoded (Count)
system.cpu0.fetch2.fpInstructions             2421722                       # Number of floating point instructions successfully decoded (Count)
system.cpu0.fetch2.vecInstructions                  0                       # Number of SIMD instructions successfully decoded (Count)
system.cpu0.fetch2.loadInstructions             22180                       # Number of memory load instructions successfully decoded (Count)
system.cpu0.fetch2.storeInstructions          1624236                       # Number of memory store instructions successfully decoded (Count)
system.cpu0.fetch2.amoInstructions                  0                       # Number of memory atomic instructions successfully decoded (Count)
system.cpu0.fetchStats0.numInsts                    0                       # Number of instructions fetched (thread level) (Count)
system.cpu0.fetchStats0.numOps                      0                       # Number of ops (including micro ops) fetched (thread level) (Count)
system.cpu0.fetchStats0.fetchRate                   0                       # Number of inst fetches per cycle ((Count/Cycle))
system.cpu0.fetchStats0.branchRate                  0                       # Number of branch fetches per cycle (Ratio)
system.cpu0.fetchStats0.numFetchSuspends            0                       # Number of times Execute suspended instruction fetching (Count)
system.cpu0.mmu.dtb.readHits                        0                       # read hits (Count)
system.cpu0.mmu.dtb.readMisses                      0                       # read misses (Count)
system.cpu0.mmu.dtb.readAccesses                    0                       # read accesses (Count)
system.cpu0.mmu.dtb.writeHits                       0                       # write hits (Count)
system.cpu0.mmu.dtb.writeMisses                     0                       # write misses (Count)
system.cpu0.mmu.dtb.writeAccesses                   0                       # write accesses (Count)
system.cpu0.mmu.dtb.hits                            0                       # Total TLB (read and write) hits (Count)
system.cpu0.mmu.dtb.misses                          0                       # Total TLB (read and write) misses (Count)
system.cpu0.mmu.dtb.accesses                        0                       # Total TLB (read and write) accesses (Count)
system.cpu0.mmu.dtb.walker.num_4kb_walks            0                       # Completed page walks with 4KB pages (Count)
system.cpu0.mmu.dtb.walker.num_2mb_walks            0                       # Completed page walks with 2MB pages (Count)
system.cpu0.mmu.dtb.walker.power_state.pwrStateResidencyTicks::UNDEFINED  10000000000                       # Cumulative time (in ticks) in various power states (Tick)
system.cpu0.mmu.itb.readHits                        0                       # read hits (Count)
system.cpu0.mmu.itb.readMisses                      0                       # read misses (Count)
system.cpu0.mmu.itb.readAccesses                    0                       # read accesses (Count)
system.cpu0.mmu.itb.writeHits                       0                       # write hits (Count)
system.cpu0.mmu.itb.writeMisses                     0                       # write misses (Count)
system.cpu0.mmu.itb.writeAccesses                   0                       # write accesses (Count)
system.cpu0.mmu.itb.hits                            0                       # Total TLB (read and write) hits (Count)
system.cpu0.mmu.itb.misses                          0                       # Total TLB (read and write) misses (Count)
system.cpu0.mmu.itb.accesses                        0                       # Total TLB (read and write) accesses (Count)
system.cpu0.mmu.itb.walker.num_4kb_walks            0                       # Completed page walks with 4KB pages (Count)
system.cpu0.mmu.itb.walker.num_2mb_walks            0                       # Completed page walks with 2MB pages (Count)
system.cpu0.mmu.itb.walker.power_state.pwrStateResidencyTicks::UNDEFINED  10000000000                       # Cumulative time (in ticks) in various power states (Tick)
system.cpu0.power_state.pwrStateResidencyTicks::ON  10000000000                       # Cumulative time (in ticks) in various power states (Tick)
system.cpu0.thread_0.numInsts                 8973746                       # Number of Instructions committed (Count)
system.cpu0.thread_0.numOps                   8973770                       # Number of Ops committed (Count)
system.cpu0.thread_0.numMemRefs                     0                       # Number of Memory References (Count)
system.cpu0.workload.numSyscalls                   14                       # Number of system calls (Count)
system.cpu1.numCycles                        30030030                       # Number of cpu cycles simulated (Cycle)
system.cpu1.cpi                              3.345121                       # CPI: cycles per instruction (core level) ((Cycle/Count))
system.cpu1.ipc                              0.298943                       # IPC: instructions per cycle (core level) ((Count/Cycle))
system.cpu1.numWorkItemsStarted                     0                       # Number of work items this cpu started (Count)
system.cpu1.numWorkItemsCompleted                   0                       # Number of work items this cpu completed (Count)
system.cpu1.branchPred.lookups_0::NoBranch           25      0.00%      0.00% # Number of BP lookups (Count)
system.cpu1.branchPred.lookups_0::Return         2293      0.27%      0.27% # Number of BP lookups (Count)
system.cpu1.branchPred.lookups_0::CallDirect         2427      0.29%      0.56% # Number of BP lookups (Count)
system.cpu1.branchPred.lookups_0::CallIndirect           10      0.00%      0.56% # Number of BP lookups (Count)
system.cpu1.branchPred.lookups_0::DirectCond       834701     98.80%     99.36% # Number of BP lookups (Count)
system.cpu1.branchPred.lookups_0::DirectUncond         3320      0.39%     99.76% # Number of BP lookups (Count)
system.cpu1.branchPred.lookups_0::IndirectCond            0      0.00%     99.76% # Number of BP lookups (Count)
system.cpu1.branchPred.lookups_0::IndirectUncond         2061      0.24%    100.00% # Number of BP lookups (Count)
system.cpu1.branchPred.lookups_0::total        844837                       # Number of BP lookups (Count)
system.cpu1.branchPred.squashes_0::NoBranch           11      0.85%      0.85% # Number of branches that got squashed (completely removed) as an earlier branch was mispredicted. (Count)
system.cpu1.branchPred.squashes_0::Return           96      7.43%      8.28% # Number of branches that got squashed (completely removed) as an earlier branch was mispredicted. (Count)
system.cpu1.branchPred.squashes_0::CallDirect          233     18.03%     26.32% # Number of branches that got squashed (completely removed) as an earlier branch was mispredicted. (Count)
system.cpu1.branchPred.squashes_0::CallIndirect            6      0.46%     26.78% # Number of branches that got squashed (completely removed) as an earlier branch was mispredicted. (Count)
system.cpu1.branchPred.squashes_0::DirectCond          795     61.53%     88.31% # Number of branches that got squashed (completely removed) as an earlier branch was mispredicted. (Count)
system.cpu1.branchPred.squashes_0::DirectUncond          136     10.53%     98.84% # Number of branches that got squashed (completely removed) as an earlier branch was mispredicted. (Count)
system.cpu1.branchPred.squashes_0::IndirectCond            0      0.00%     98.84% # Number of branches that got squashed (completely removed) as an earlier branch was mispredicted. (Count)
system.cpu1.branchPred.squashes_0::IndirectUncond           15      1.16%    100.00% # Number of branches that got squashed (completely removed) as an earlier branch was mispredicted. (Count)
system.cpu1.branchPred.squashes_0::total         1292                       # Number of branches that got squashed (completely removed) as an earlier branch was mispredicted. (Count)
system.cpu1.branchPred.corrected_0::NoBranch           14      2.88%      2.88% # Number of branches that got corrected but not yet commited. Branches get corrected by decode or after execute. Also a branch misprediction can be detected out-of-order. Therefore, a corrected branch might not end up beeing committed in case an even earlier branch was mispredicted (Count)
system.cpu1.branchPred.corrected_0::Return            7      1.44%      4.32% # Number of branches that got corrected but not yet commited. Branches get corrected by decode or after execute. Also a branch misprediction can be detected out-of-order. Therefore, a corrected branch might not end up beeing committed in case an even earlier branch was mispredicted (Count)
system.cpu1.branchPred.corrected_0::CallDirect           93     19.14%     23.46% # Number of branches that got corrected but not yet commited. Branches get corrected by decode or after execute. Also a branch misprediction can be detected out-of-order. Therefore, a corrected branch might not end up beeing committed in case an even earlier branch was mispredicted (Count)
system.cpu1.branchPred.corrected_0::CallIndirect            4      0.82%     24.28% # Number of branches that got corrected but not yet commited. Branches get corrected by decode or after execute. Also a branch misprediction can be detected out-of-order. Therefore, a corrected branch might not end up beeing committed in case an even earlier branch was mispredicted (Count)
system.cpu1.branchPred.corrected_0::DirectCond          303     62.35%     86.63% # Number of branches that got corrected but not yet commited. Branches get corrected by decode or after execute. Also a branch misprediction can be detected out-of-order. Therefore, a corrected branch might not end up beeing committed in case an even earlier branch was mispredicted (Count)
system.cpu1.branchPred.corrected_0::DirectUncond           54     11.11%     97.74% # Number of branches that got corrected but not yet commited. Branches get corrected by decode or after execute. Also a branch misprediction can be detected out-of-order. Therefore, a corrected branch might not end up beeing committed in case an even earlier branch was mispredicted (Count)
system.cpu1.branchPred.corrected_0::IndirectCond            0      0.00%     97.74% # Number of branches that got corrected but not yet commited. Branches get corrected by decode or after execute. Also a branch misprediction can be detected out-of-order. Therefore, a corrected branch might not end up beeing committed in case an even earlier branch was mispredicted (Count)
system.cpu1.branchPred.corrected_0::IndirectUncond           11      2.26%    100.00% # Number of branches that got corrected but not yet commited. Branches get corrected by decode or after execute. Also a branch misprediction can be detected out-of-order. Therefore, a corrected branch might not end up beeing committed in case an even earlier branch was mispredicted (Count)
system.cpu1.branchPred.corrected_0::total          486                       # Number of branches that got corrected but not yet commited. Branches get corrected by decode or after execute. Also a branch misprediction can be detected out-of-order. Therefore, a corrected branch might not end up beeing committed in case an even earlier branch was mispredicted (Count)
system.cpu1.branchPred.earlyResteers_0::NoBranch            0                       # Number of branches that got redirected after decode. (Count)
system.cpu1.branchPred.earlyResteers_0::Return            0                       # Number of branches that got redirected after decode. (Count)
system.cpu1.branchPred.earlyResteers_0::CallDirect            0                       # Number of branches that got redirected after decode. (Count)
system.cpu1.branchPred.earlyResteers_0::CallIndirect            0                       # Number of branches that got redirected after decode. (Count)
system.cpu1.branchPred.earlyResteers_0::DirectCond            0                       # Number of branches that got redirected after decode. (Count)
system.cpu1.branchPred.earlyResteers_0::DirectUncond            0                       # Number of branches that got redirected after decode. (Count)
system.cpu1.branchPred.earlyResteers_0::IndirectCond            0                       # Number of branches that got redirected after decode. (Count)
system.cpu1.branchPred.earlyResteers_0::IndirectUncond            0                       # Number of branches that got redirected after decode. (Count)
system.cpu1.branchPred.earlyResteers_0::total            0                       # Number of branches that got redirected after decode. (Count)
system.cpu1.branchPred.committed_0::NoBranch           14      0.00%      0.00% # Number of branches finally committed  (Count)
system.cpu1.branchPred.committed_0::Return         2197      0.26%      0.26% # Number of branches finally committed  (Count)
system.cpu1.branchPred.committed_0::CallDirect         2194      0.26%      0.52% # Number of branches finally committed  (Count)
system.cpu1.branchPred.committed_0::CallIndirect            4      0.00%      0.52% # Number of branches finally committed  (Count)
system.cpu1.branchPred.committed_0::DirectCond       833904     98.86%     99.38% # Number of branches finally committed  (Count)
system.cpu1.branchPred.committed_0::DirectUncond         3184      0.38%     99.76% # Number of branches finally committed  (Count)
system.cpu1.branchPred.committed_0::IndirectCond            0      0.00%     99.76% # Number of branches finally committed  (Count)
system.cpu1.branchPred.committed_0::IndirectUncond         2046      0.24%    100.00% # Number of branches finally committed  (Count)
system.cpu1.branchPred.committed_0::total       843543                       # Number of branches finally committed  (Count)
system.cpu1.branchPred.mispredicted_0::NoBranch           14      2.88%      2.88% # Number of committed branches that were mispredicted. (Count)
system.cpu1.branchPred.mispredicted_0::Return            7      1.44%      4.32% # Number of committed branches that were mispredicted. (Count)
system.cpu1.branchPred.mispredicted_0::CallDirect           93     19.14%     23.46% # Number of committed branches that were mispredicted. (Count)
system.cpu1.branchPred.mispredicted_0::CallIndirect            4      0.82%     24.28% # Number of committed branches that were mispredicted. (Count)
system.cpu1.branchPred.mispredicted_0::DirectCond          303     62.35%     86.63% # Number of committed branches that were mispredicted. (Count)
system.cpu1.branchPred.mispredicted_0::DirectUncond           54     11.11%     97.74% # Number of committed branches that were mispredicted. (Count)
system.cpu1.branchPred.mispredicted_0::IndirectCond            0      0.00%     97.74% # Number of committed branches that were mispredicted. (Count)
system.cpu1.branchPred.mispredicted_0::IndirectUncond           11      2.26%    100.00% # Number of committed branches that were mispredicted. (Count)
system.cpu1.branchPred.mispredicted_0::total          486                       # Number of committed branches that were mispredicted. (Count)
system.cpu1.branchPred.targetProvider_0::NoTarget        18500      2.19%      2.19% # The component providing the target for taken branches (Count)
system.cpu1.branchPred.targetProvider_0::BTB       822003     97.30%     99.49% # The component providing the target for taken branches (Count)
system.cpu1.branchPred.targetProvider_0::RAS         2291      0.27%     99.76% # The component providing the target for taken branches (Count)
system.cpu1.branchPred.targetProvider_0::Indirect         2043      0.24%    100.00% # The component providing the target for taken branches (Count)
system.cpu1.branchPred.targetProvider_0::total       844837                       # The component providing the target for taken branches (Count)
system.cpu1.branchPred.targetWrong_0::NoBranch          421     89.19%     89.19% # Number of branches where the target was incorrect or not available at prediction time. (Count)
system.cpu1.branchPred.targetWrong_0::Return           44      9.32%     98.52% # Number of branches where the target was incorrect or not available at prediction time. (Count)
system.cpu1.branchPred.targetWrong_0::CallDirect            7      1.48%    100.00% # Number of branches where the target was incorrect or not available at prediction time. (Count)
system.cpu1.branchPred.targetWrong_0::CallIndirect            0      0.00%    100.00% # Number of branches where the target was incorrect or not available at prediction time. (Count)
system.cpu1.branchPred.targetWrong_0::DirectCond            0      0.00%    100.00% # Number of branches where the target was incorrect or not available at prediction time. (Count)
system.cpu1.branchPred.targetWrong_0::DirectUncond            0      0.00%    100.00% # Number of branches where the target was incorrect or not available at prediction time. (Count)
system.cpu1.branchPred.targetWrong_0::IndirectCond            0      0.00%    100.00% # Number of branches where the target was incorrect or not available at prediction time. (Count)
system.cpu1.branchPred.targetWrong_0::IndirectUncond            0      0.00%    100.00% # Number of branches where the target was incorrect or not available at prediction time. (Count)
system.cpu1.branchPred.targetWrong_0::total          472                       # Number of branches where the target was incorrect or not available at prediction time. (Count)
system.cpu1.branchPred.condPredicted           834726                       # Number of conditional branches predicted (Count)
system.cpu1.branchPred.condPredictedTaken       817029                       # Number of conditional branches predicted as taken (Count)
system.cpu1.branchPred.condIncorrect              486                       # Number of conditional branches incorrect (Count)
system.cpu1.branchPred.predTakenBTBMiss           176                       # Number of branches predicted taken but missed in BTB (Count)
system.cpu1.branchPred.NotTakenMispredicted          443                       # Number branches predicted 'not taken' but turned out to be taken (Count)
system.cpu1.branchPred.TakenMispredicted           43                       # Number branches predicted taken but are actually not taken (Count)
system.cpu1.branchPred.BTBLookups              844837                       # Number of BTB lookups (Count)
system.cpu1.branchPred.BTBUpdates                 407                       # Number of BTB updates (Count)
system.cpu1.branchPred.BTBHits                 825301                       # Number of BTB hits (Count)
system.cpu1.branchPred.BTBHitRatio           0.976876                       # BTB Hit Ratio (Ratio)
system.cpu1.branchPred.BTBMispredicted            289                       # Number BTB mispredictions. No target found or target wrong (Count)
system.cpu1.branchPred.indirectLookups           2071                       # Number of indirect predictor lookups. (Count)
system.cpu1.branchPred.indirectHits              2043                       # Number of indirect target hits. (Count)
system.cpu1.branchPred.indirectMisses              28                       # Number of indirect misses. (Count)
system.cpu1.branchPred.indirectMispredicted            0                       # Number of mispredicted indirect branches. (Count)
system.cpu1.branchPred.btb.lookups::NoBranch           25      0.00%      0.00% # Number of BTB lookups (Count)
system.cpu1.branchPred.btb.lookups::Return         2293      0.27%      0.27% # Number of BTB lookups (Count)
system.cpu1.branchPred.btb.lookups::CallDirect         2427      0.29%      0.56% # Number of BTB lookups (Count)
system.cpu1.branchPred.btb.lookups::CallIndirect           10      0.00%      0.56% # Number of BTB lookups (Count)
system.cpu1.branchPred.btb.lookups::DirectCond       834701     98.80%     99.36% # Number of BTB lookups (Count)
system.cpu1.branchPred.btb.lookups::DirectUncond         3320      0.39%     99.76% # Number of BTB lookups (Count)
system.cpu1.branchPred.btb.lookups::IndirectCond            0      0.00%     99.76% # Number of BTB lookups (Count)
system.cpu1.branchPred.btb.lookups::IndirectUncond         2061      0.24%    100.00% # Number of BTB lookups (Count)
system.cpu1.branchPred.btb.lookups::total       844837                       # Number of BTB lookups (Count)
system.cpu1.branchPred.btb.misses::NoBranch           25      0.13%      0.13% # Number of BTB misses (Count)
system.cpu1.branchPred.btb.misses::Return         2293     11.74%     11.87% # Number of BTB misses (Count)
system.cpu1.branchPred.btb.misses::CallDirect          294      1.50%     13.37% # Number of BTB misses (Count)
system.cpu1.branchPred.btb.misses::CallIndirect           10      0.05%     13.42% # Number of BTB misses (Count)
system.cpu1.branchPred.btb.misses::DirectCond        14688     75.18%     88.61% # Number of BTB misses (Count)
system.cpu1.branchPred.btb.misses::DirectUncond          165      0.84%     89.45% # Number of BTB misses (Count)
system.cpu1.branchPred.btb.misses::IndirectCond            0      0.00%     89.45% # Number of BTB misses (Count)
system.cpu1.branchPred.btb.misses::IndirectUncond         2061     10.55%    100.00% # Number of BTB misses (Count)
system.cpu1.branchPred.btb.misses::total        19536                       # Number of BTB misses (Count)
system.cpu1.branchPred.btb.updates::NoBranch            0      0.00%      0.00% # Number of BTB updates (Count)
system.cpu1.branchPred.btb.updates::Return            0      0.00%      0.00% # Number of BTB updates (Count)
system.cpu1.branchPred.btb.updates::CallDirect           93     22.85%     22.85% # Number of BTB updates (Count)
system.cpu1.branchPred.btb.updates::CallIndirect            0      0.00%     22.85% # Number of BTB updates (Count)
system.cpu1.branchPred.btb.updates::DirectCond          260     63.88%     86.73% # Number of BTB updates (Count)
system.cpu1.branchPred.btb.updates::DirectUncond           54     13.27%    100.00% # Number of BTB updates (Count)
system.cpu1.branchPred.btb.updates::IndirectCond            0      0.00%    100.00% # Number of BTB updates (Count)
system.cpu1.branchPred.btb.updates::IndirectUncond            0      0.00%    100.00% # Number of BTB updates (Count)
system.cpu1.branchPred.btb.updates::total          407                       # Number of BTB updates (Count)
system.cpu1.branchPred.btb.mispredict::NoBranch            0      0.00%      0.00% # Number of BTB mispredictions. No target found or target wrong. (Count)
system.cpu1.branchPred.btb.mispredict::Return            0      0.00%      0.00% # Number of BTB mispredictions. No target found or target wrong. (Count)
system.cpu1.branchPred.btb.mispredict::CallDirect           93     22.85%     22.85% # Number of BTB mispredictions. No target found or target wrong. (Count)
system.cpu1.branchPred.btb.mispredict::CallIndirect            0      0.00%     22.85% # Number of BTB mispredictions. No target found or target wrong. (Count)
system.cpu1.branchPred.btb.mispredict::DirectCond          260     63.88%     86.73% # Number of BTB mispredictions. No target found or target wrong. (Count)
system.cpu1.branchPred.btb.mispredict::DirectUncond           54     13.27%    100.00% # Number of BTB mispredictions. No target found or target wrong. (Count)
system.cpu1.branchPred.btb.mispredict::IndirectCond            0      0.00%    100.00% # Number of BTB mispredictions. No target found or target wrong. (Count)
system.cpu1.branchPred.btb.mispredict::IndirectUncond            0      0.00%    100.00% # Number of BTB mispredictions. No target found or target wrong. (Count)
system.cpu1.branchPred.btb.mispredict::total          407                       # Number of BTB mispredictions. No target found or target wrong. (Count)
system.cpu1.branchPred.btb.power_state.pwrStateResidencyTicks::UNDEFINED  10000000000                       # Cumulative time (in ticks) in various power states (Tick)
system.cpu1.branchPred.indirectBranchPred.lookups         2071                       # Number of lookups (Count)
system.cpu1.branchPred.indirectBranchPred.hits         2043                       # Number of hits of a tag (Count)
system.cpu1.branchPred.indirectBranchPred.misses           28                       # Number of misses (Count)
system.cpu1.branchPred.indirectBranchPred.targetRecords           15                       # Number of targets that where recorded/installed in the cache (Count)
system.cpu1.branchPred.indirectBranchPred.indirectRecords         2086                       # Number of indirect branches/calls recorded in the indirect hist (Count)
system.cpu1.branchPred.indirectBranchPred.speculativeOverflows            9                       # Number of times more than the allowed capacity for speculative branches/calls where in flight and destroy the path history (Count)
system.cpu1.branchPred.ras.pushes                2533                       # Number of times a PC was pushed onto the RAS (Count)
system.cpu1.branchPred.ras.pops                  2532                       # Number of times a PC was poped from the RAS (Count)
system.cpu1.branchPred.ras.squashes               335                       # Number of times the stack operation was squashed due to wrong speculation. (Count)
system.cpu1.branchPred.ras.used                  2197                       # Number of times the RAS is the provider (Count)
system.cpu1.branchPred.ras.correct               2190                       # Number of times the RAS is the provider and the prediction is correct (Count)
system.cpu1.branchPred.ras.incorrect                7                       # Number of times the RAS is the provider and the prediction is wrong (Count)
system.cpu1.commitStats0.numInsts             8977262                       # Number of instructions committed (thread level) (Count)
system.cpu1.commitStats0.numOps               8977286                       # Number of ops (including micro ops) committed (thread level) (Count)
system.cpu1.commitStats0.numInstsNotNOP             0                       # Number of instructions committed excluding NOPs or prefetches (Count)
system.cpu1.commitStats0.numOpsNotNOP               0                       # Number of Ops (including micro ops) Simulated (Count)
system.cpu1.commitStats0.cpi                 3.345121                       # CPI: cycles per instruction (thread level) ((Cycle/Count))
system.cpu1.commitStats0.ipc                 0.298943                       # IPC: instructions per cycle (thread level) ((Count/Cycle))
system.cpu1.commitStats0.numMemRefs                 0                       # Number of memory references committed (Count)
system.cpu1.commitStats0.numFpInsts                 0                       # Number of float instructions (Count)
system.cpu1.commitStats0.numIntInsts                0                       # Number of integer instructions (Count)
system.cpu1.commitStats0.numLoadInsts               0                       # Number of load instructions (Count)
system.cpu1.commitStats0.numStoreInsts              0                       # Number of store instructions (Count)
system.cpu1.commitStats0.numVecInsts                0                       # Number of vector instructions (Count)
system.cpu1.commitStats0.committedInstType::No_OpClass           56      0.00%      0.00% # Class of committed instruction. (Count)
system.cpu1.commitStats0.committedInstType::IntAlu      4928240     54.90%     54.90% # Class of committed instruction. (Count)
system.cpu1.commitStats0.committedInstType::IntMult           11      0.00%     54.90% # Class of committed instruction. (Count)
system.cpu1.commitStats0.committedInstType::IntDiv            3      0.00%     54.90% # Class of committed instruction. (Count)
system.cpu1.commitStats0.committedInstType::FloatAdd            0      0.00%     54.90% # Class of committed instruction. (Count)
system.cpu1.commitStats0.committedInstType::FloatCmp            0      0.00%     54.90% # Class of committed instruction. (Count)
system.cpu1.commitStats0.committedInstType::FloatCvt       803897      8.95%     63.85% # Class of committed instruction. (Count)
system.cpu1.commitStats0.committedInstType::FloatMult      1607792     17.91%     81.76% # Class of committed instruction. (Count)
system.cpu1.commitStats0.committedInstType::FloatMultAcc            0      0.00%     81.76% # Class of committed instruction. (Count)
system.cpu1.commitStats0.committedInstType::FloatDiv            0      0.00%     81.76% # Class of committed instruction. (Count)
system.cpu1.commitStats0.committedInstType::FloatMisc            0      0.00%     81.76% # Class of committed instruction. (Count)
system.cpu1.commitStats0.committedInstType::FloatSqrt            0      0.00%     81.76% # Class of committed instruction. (Count)
system.cpu1.commitStats0.committedInstType::SimdAdd            0      0.00%     81.76% # Class of committed instruction. (Count)
system.cpu1.commitStats0.committedInstType::SimdAddAcc            0      0.00%     81.76% # Class of committed instruction. (Count)
system.cpu1.commitStats0.committedInstType::SimdAlu            0      0.00%     81.76% # Class of committed instruction. (Count)
system.cpu1.commitStats0.committedInstType::SimdCmp            0      0.00%     81.76% # Class of committed instruction. (Count)
system.cpu1.commitStats0.committedInstType::SimdCvt            0      0.00%     81.76% # Class of committed instruction. (Count)
system.cpu1.commitStats0.committedInstType::SimdMisc            0      0.00%     81.76% # Class of committed instruction. (Count)
system.cpu1.commitStats0.committedInstType::SimdMult            0      0.00%     81.76% # Class of committed instruction. (Count)
system.cpu1.commitStats0.committedInstType::SimdMultAcc            0      0.00%     81.76% # Class of committed instruction. (Count)
system.cpu1.commitStats0.committedInstType::SimdMatMultAcc            0      0.00%     81.76% # Class of committed instruction. (Count)
system.cpu1.commitStats0.committedInstType::SimdShift            0      0.00%     81.76% # Class of committed instruction. (Count)
system.cpu1.commitStats0.committedInstType::SimdShiftAcc            0      0.00%     81.76% # Class of committed instruction. (Count)
system.cpu1.commitStats0.committedInstType::SimdDiv            0      0.00%     81.76% # Class of committed instruction. (Count)
system.cpu1.commitStats0.committedInstType::SimdSqrt            0      0.00%     81.76% # Class of committed instruction. (Count)
system.cpu1.commitStats0.committedInstType::SimdFloatAdd            0      0.00%     81.76% # Class of committed instruction. (Count)
system.cpu1.commitStats0.committedInstType::SimdFloatAlu            0      0.00%     81.76% # Class of committed instruction. (Count)
system.cpu1.commitStats0.committedInstType::SimdFloatCmp            0      0.00%     81.76% # Class of committed instruction. (Count)
system.cpu1.commitStats0.committedInstType::SimdFloatCvt            0      0.00%     81.76% # Class of committed instruction. (Count)
system.cpu1.commitStats0.committedInstType::SimdFloatDiv            0      0.00%     81.76% # Class of committed instruction. (Count)
system.cpu1.commitStats0.committedInstType::SimdFloatMisc            0      0.00%     81.76% # Class of committed instruction. (Count)
system.cpu1.commitStats0.committedInstType::SimdFloatMult            0      0.00%     81.76% # Class of committed instruction. (Count)
system.cpu1.commitStats0.committedInstType::SimdFloatMultAcc            0      0.00%     81.76% # Class of committed instruction. (Count)
system.cpu1.commitStats0.committedInstType::SimdFloatMatMultAcc            0      0.00%     81.76% # Class of committed instruction. (Count)
system.cpu1.commitStats0.committedInstType::SimdFloatSqrt            0      0.00%     81.76% # Class of committed instruction. (Count)
system.cpu1.commitStats0.committedInstType::SimdReduceAdd            0      0.00%     81.76% # Class of committed instruction. (Count)
system.cpu1.commitStats0.committedInstType::SimdReduceAlu            0      0.00%     81.76% # Class of committed instruction. (Count)
system.cpu1.commitStats0.committedInstType::SimdReduceCmp            0      0.00%     81.76% # Class of committed instruction. (Count)
system.cpu1.commitStats0.committedInstType::SimdFloatReduceAdd            0      0.00%     81.76% # Class of committed instruction. (Count)
system.cpu1.commitStats0.committedInstType::SimdFloatReduceCmp            0      0.00%     81.76% # Class of committed instruction. (Count)
system.cpu1.commitStats0.committedInstType::SimdAes            0      0.00%     81.76% # Class of committed instruction. (Count)
system.cpu1.commitStats0.committedInstType::SimdAesMix            0      0.00%     81.76% # Class of committed instruction. (Count)
system.cpu1.commitStats0.committedInstType::SimdSha1Hash            0      0.00%     81.76% # Class of committed instruction. (Count)
system.cpu1.commitStats0.committedInstType::SimdSha1Hash2            0      0.00%     81.76% # Class of committed instruction. (Count)
system.cpu1.commitStats0.committedInstType::SimdSha256Hash            0      0.00%     81.76% # Class of committed instruction. (Count)
system.cpu1.commitStats0.committedInstType::SimdSha256Hash2            0      0.00%     81.76% # Class of committed instruction. (Count)
system.cpu1.commitStats0.committedInstType::SimdShaSigma2            0      0.00%     81.76% # Class of committed instruction. (Count)
system.cpu1.commitStats0.committedInstType::SimdShaSigma3            0      0.00%     81.76% # Class of committed instruction. (Count)
system.cpu1.commitStats0.committedInstType::SimdPredAlu            0      0.00%     81.76% # Class of committed instruction. (Count)
system.cpu1.commitStats0.committedInstType::Matrix            0      0.00%     81.76% # Class of committed instruction. (Count)
system.cpu1.commitStats0.committedInstType::MatrixMov            0      0.00%     81.76% # Class of committed instruction. (Count)
system.cpu1.commitStats0.committedInstType::MatrixOP            0      0.00%     81.76% # Class of committed instruction. (Count)
system.cpu1.commitStats0.committedInstType::MemRead        20876      0.23%     81.99% # Class of committed instruction. (Count)
system.cpu1.commitStats0.committedInstType::MemWrite         5464      0.06%     82.06% # Class of committed instruction. (Count)
system.cpu1.commitStats0.committedInstType::FloatMemRead            2      0.00%     82.06% # Class of committed instruction. (Count)
system.cpu1.commitStats0.committedInstType::FloatMemWrite      1610945     17.94%    100.00% # Class of committed instruction. (Count)
system.cpu1.commitStats0.committedInstType::IprAccess            0      0.00%    100.00% # Class of committed instruction. (Count)
system.cpu1.commitStats0.committedInstType::InstPrefetch            0      0.00%    100.00% # Class of committed instruction. (Count)
system.cpu1.commitStats0.committedInstType::SimdUnitStrideLoad            0      0.00%    100.00% # Class of committed instruction. (Count)
system.cpu1.commitStats0.committedInstType::SimdUnitStrideStore            0      0.00%    100.00% # Class of committed instruction. (Count)
system.cpu1.commitStats0.committedInstType::SimdUnitStrideMaskLoad            0      0.00%    100.00% # Class of committed instruction. (Count)
system.cpu1.commitStats0.committedInstType::SimdUnitStrideMaskStore            0      0.00%    100.00% # Class of committed instruction. (Count)
system.cpu1.commitStats0.committedInstType::SimdStridedLoad            0      0.00%    100.00% # Class of committed instruction. (Count)
system.cpu1.commitStats0.committedInstType::SimdStridedStore            0      0.00%    100.00% # Class of committed instruction. (Count)
system.cpu1.commitStats0.committedInstType::SimdIndexedLoad            0      0.00%    100.00% # Class of committed instruction. (Count)
system.cpu1.commitStats0.committedInstType::SimdIndexedStore            0      0.00%    100.00% # Class of committed instruction. (Count)
system.cpu1.commitStats0.committedInstType::SimdWholeRegisterLoad            0      0.00%    100.00% # Class of committed instruction. (Count)
system.cpu1.commitStats0.committedInstType::SimdWholeRegisterStore            0      0.00%    100.00% # Class of committed instruction. (Count)
system.cpu1.commitStats0.committedInstType::SimdUnitStrideFaultOnlyFirstLoad            0      0.00%    100.00% # Class of committed instruction. (Count)
system.cpu1.commitStats0.committedInstType::SimdUnitStrideSegmentedLoad            0      0.00%    100.00% # Class of committed instruction. (Count)
system.cpu1.commitStats0.committedInstType::SimdUnitStrideSegmentedStore            0      0.00%    100.00% # Class of committed instruction. (Count)
system.cpu1.commitStats0.committedInstType::SimdExt            0      0.00%    100.00% # Class of committed instruction. (Count)
system.cpu1.commitStats0.committedInstType::SimdFloatExt            0      0.00%    100.00% # Class of committed instruction. (Count)
system.cpu1.commitStats0.committedInstType::SimdConfig            0      0.00%    100.00% # Class of committed instruction. (Count)
system.cpu1.commitStats0.committedInstType::total      8977286                       # Class of committed instruction. (Count)
system.cpu1.executeStats0.numInsts                  0                       # Number of executed instructions (Count)
system.cpu1.executeStats0.numNop                    0                       # Number of nop insts executed (Count)
system.cpu1.executeStats0.numBranches               0                       # Number of branches executed (Count)
[...]
system.mem_ctrl.dram.numWrites::total          398020                       # Number of write requests responded to by this memory (Count)
system.mem_ctrl.dram.bwRead::cpu0.inst        2374400                       # Total read bandwidth from this memory ((Byte/Second))
system.mem_ctrl.dram.bwRead::cpu0.data     1292889600                       # Total read bandwidth from this memory ((Byte/Second))
system.mem_ctrl.dram.bwRead::cpu1.inst        2374400                       # Total read bandwidth from this memory ((Byte/Second))
system.mem_ctrl.dram.bwRead::cpu1.data     1293388800                       # Total read bandwidth from this memory ((Byte/Second))
system.mem_ctrl.dram.bwRead::total         2591027200                       # Total read bandwidth from this memory ((Byte/Second))
system.mem_ctrl.dram.bwInstRead::cpu0.inst      2374400                       # Instruction read bandwidth from this memory ((Byte/Second))
system.mem_ctrl.dram.bwInstRead::cpu1.inst      2374400                       # Instruction read bandwidth from this memory ((Byte/Second))
system.mem_ctrl.dram.bwInstRead::total        4748800                       # Instruction read bandwidth from this memory ((Byte/Second))
system.mem_ctrl.dram.bwWrite::writebacks   2547328000                       # Write bandwidth from this memory ((Byte/Second))
system.mem_ctrl.dram.bwWrite::total        2547328000                       # Write bandwidth from this memory ((Byte/Second))
system.mem_ctrl.dram.bwTotal::writebacks   2547328000                       # Total bandwidth to/from this memory ((Byte/Second))
system.mem_ctrl.dram.bwTotal::cpu0.inst       2374400                       # Total bandwidth to/from this memory ((Byte/Second))
system.mem_ctrl.dram.bwTotal::cpu0.data    1292889600                       # Total bandwidth to/from this memory ((Byte/Second))
system.mem_ctrl.dram.bwTotal::cpu1.inst       2374400                       # Total bandwidth to/from this memory ((Byte/Second))
system.mem_ctrl.dram.bwTotal::cpu1.data    1293388800                       # Total bandwidth to/from this memory ((Byte/Second))
system.mem_ctrl.dram.bwTotal::total        5138355200                       # Total bandwidth to/from this memory ((Byte/Second))
system.mem_ctrl.dram.readBursts                404850                       # Number of DRAM read bursts (Count)
system.mem_ctrl.dram.writeBursts               397995                       # Number of DRAM write bursts (Count)
system.mem_ctrl.dram.perBankRdBursts::0         25423                       # Per bank write bursts (Count)
system.mem_ctrl.dram.perBankRdBursts::1         25273                       # Per bank write bursts (Count)
system.mem_ctrl.dram.perBankRdBursts::2         25391                       # Per bank write bursts (Count)
system.mem_ctrl.dram.perBankRdBursts::3         25266                       # Per bank write bursts (Count)
system.mem_ctrl.dram.perBankRdBursts::4         25219                       # Per bank write bursts (Count)
system.mem_ctrl.dram.perBankRdBursts::5         25236                       # Per bank write bursts (Count)
system.mem_ctrl.dram.perBankRdBursts::6         25325                       # Per bank write bursts (Count)
system.mem_ctrl.dram.perBankRdBursts::7         25278                       # Per bank write bursts (Count)
system.mem_ctrl.dram.perBankRdBursts::8         25283                       # Per bank write bursts (Count)
system.mem_ctrl.dram.perBankRdBursts::9         25168                       # Per bank write bursts (Count)
system.mem_ctrl.dram.perBankRdBursts::10        25235                       # Per bank write bursts (Count)
system.mem_ctrl.dram.perBankRdBursts::11        25330                       # Per bank write bursts (Count)
system.mem_ctrl.dram.perBankRdBursts::12        25427                       # Per bank write bursts (Count)
system.mem_ctrl.dram.perBankRdBursts::13        25344                       # Per bank write bursts (Count)
system.mem_ctrl.dram.perBankRdBursts::14        25331                       # Per bank write bursts (Count)
system.mem_ctrl.dram.perBankRdBursts::15        25321                       # Per bank write bursts (Count)
system.mem_ctrl.dram.perBankWrBursts::0         24962                       # Per bank write bursts (Count)
system.mem_ctrl.dram.perBankWrBursts::1         24838                       # Per bank write bursts (Count)
system.mem_ctrl.dram.perBankWrBursts::2         25007                       # Per bank write bursts (Count)
system.mem_ctrl.dram.perBankWrBursts::3         24886                       # Per bank write bursts (Count)
system.mem_ctrl.dram.perBankWrBursts::4         24832                       # Per bank write bursts (Count)
system.mem_ctrl.dram.perBankWrBursts::5         24862                       # Per bank write bursts (Count)
system.mem_ctrl.dram.perBankWrBursts::6         24834                       # Per bank write bursts (Count)
system.mem_ctrl.dram.perBankWrBursts::7         24836                       # Per bank write bursts (Count)
system.mem_ctrl.dram.perBankWrBursts::8         24879                       # Per bank write bursts (Count)
system.mem_ctrl.dram.perBankWrBursts::9         24835                       # Per bank write bursts (Count)
system.mem_ctrl.dram.perBankWrBursts::10        24832                       # Per bank write bursts (Count)
system.mem_ctrl.dram.perBankWrBursts::11        24862                       # Per bank write bursts (Count)
system.mem_ctrl.dram.perBankWrBursts::12        24888                       # Per bank write bursts (Count)
system.mem_ctrl.dram.perBankWrBursts::13        24846                       # Per bank write bursts (Count)
system.mem_ctrl.dram.perBankWrBursts::14        24836                       # Per bank write bursts (Count)
system.mem_ctrl.dram.perBankWrBursts::15        24960                       # Per bank write bursts (Count)
system.mem_ctrl.dram.totQLat              12177759427                       # Total ticks spent queuing (Tick)
system.mem_ctrl.dram.totBusLat             2024250000                       # Total ticks spent in databus transfers (Tick)
system.mem_ctrl.dram.totMemAccLat         19768696927                       # Total ticks spent from burst creation until serviced by the DRAM (Tick)
system.mem_ctrl.dram.avgQLat                 30079.68                       # Average queueing delay per DRAM burst ((Tick/Count))
system.mem_ctrl.dram.avgBusLat                5000.00                       # Average bus latency per DRAM burst ((Tick/Count))
system.mem_ctrl.dram.avgMemAccLat            48829.68                       # Average memory access latency per DRAM burst ((Tick/Count))
system.mem_ctrl.dram.readRowHits               372945                       # Number of row buffer hits during reads (Count)
system.mem_ctrl.dram.writeRowHits              370516                       # Number of row buffer hits during writes (Count)
system.mem_ctrl.dram.readRowHitRate             92.12                       # Row buffer hit rate for reads (Ratio)
system.mem_ctrl.dram.writeRowHitRate            93.10                       # Row buffer hit rate for writes (Ratio)
system.mem_ctrl.dram.bytesPerActivate::samples        59382                       # Bytes accessed per row activation (Byte)
system.mem_ctrl.dram.bytesPerActivate::mean   865.264221                       # Bytes accessed per row activation (Byte)
system.mem_ctrl.dram.bytesPerActivate::gmean   776.801264                       # Bytes accessed per row activation (Byte)
system.mem_ctrl.dram.bytesPerActivate::stdev   282.726747                       # Bytes accessed per row activation (Byte)
system.mem_ctrl.dram.bytesPerActivate::0-127          394      0.66%      0.66% # Bytes accessed per row activation (Byte)
system.mem_ctrl.dram.bytesPerActivate::128-255         3339      5.62%      6.29% # Bytes accessed per row activation (Byte)
system.mem_ctrl.dram.bytesPerActivate::256-383         2120      3.57%      9.86% # Bytes accessed per row activation (Byte)
system.mem_ctrl.dram.bytesPerActivate::384-511         1930      3.25%     13.11% # Bytes accessed per row activation (Byte)
system.mem_ctrl.dram.bytesPerActivate::512-639         3709      6.25%     19.35% # Bytes accessed per row activation (Byte)
system.mem_ctrl.dram.bytesPerActivate::640-767         1531      2.58%     21.93% # Bytes accessed per row activation (Byte)
system.mem_ctrl.dram.bytesPerActivate::768-895         2763      4.65%     26.58% # Bytes accessed per row activation (Byte)
system.mem_ctrl.dram.bytesPerActivate::896-1023         1910      3.22%     29.80% # Bytes accessed per row activation (Byte)
system.mem_ctrl.dram.bytesPerActivate::1024-1151        41686     70.20%    100.00% # Bytes accessed per row activation (Byte)
system.mem_ctrl.dram.bytesPerActivate::total        59382                       # Bytes accessed per row activation (Byte)
system.mem_ctrl.dram.dramBytesRead           25910400                       # Total bytes read (Byte)
system.mem_ctrl.dram.dramBytesWritten        25471680                       # Total bytes written (Byte)
system.mem_ctrl.dram.avgRdBW              2591.040000                       # Average DRAM read bandwidth in MiBytes/s ((Byte/Second))
system.mem_ctrl.dram.avgWrBW              2547.168000                       # Average DRAM write bandwidth in MiBytes/s ((Byte/Second))
system.mem_ctrl.dram.peakBW                  12800.00                       # Theoretical peak bandwidth in MiByte/s ((Byte/Second))
system.mem_ctrl.dram.busUtil                    40.14                       # Data bus utilization in percentage (Ratio)
system.mem_ctrl.dram.busUtilRead                20.24                       # Data bus utilization in percentage for reads (Ratio)
system.mem_ctrl.dram.busUtilWrite               19.90                       # Data bus utilization in percentage for writes (Ratio)
system.mem_ctrl.dram.pageHitRate                92.60                       # Row buffer hit rate, read and write combined (Ratio)
system.mem_ctrl.dram.power_state.pwrStateResidencyTicks::UNDEFINED  10000000000                       # Cumulative time (in ticks) in various power states (Tick)
system.mem_ctrl.dram.rank0.actEnergy        212343600                       # Energy for activate commands per rank (pJ) (Joule)
system.mem_ctrl.dram.rank0.preEnergy        112851915                       # Energy for precharge commands per rank (pJ) (Joule)
system.mem_ctrl.dram.rank0.readEnergy      1445207400                       # Energy for read commands per rank (pJ) (Joule)
system.mem_ctrl.dram.rank0.writeEnergy     1039077540                       # Energy for write commands per rank (pJ) (Joule)
system.mem_ctrl.dram.rank0.refreshEnergy 789197760.000000                       # Energy for refresh commands per rank (pJ) (Joule)
system.mem_ctrl.dram.rank0.actBackEnergy   2949504330                       # Energy for active background per rank (pJ) (Joule)
system.mem_ctrl.dram.rank0.preBackEnergy   1356206880                       # Energy for precharge background per rank (pJ) (Joule)
system.mem_ctrl.dram.rank0.actPowerDownEnergy            0                       # Energy for active power-down per rank (pJ) (Joule)
system.mem_ctrl.dram.rank0.prePowerDownEnergy            0                       # Energy for precharge power-down per rank (pJ) (Joule)
system.mem_ctrl.dram.rank0.selfRefreshEnergy            0                       # Energy for self refresh per rank (pJ) (Joule)
system.mem_ctrl.dram.rank0.totalEnergy     7904389425                       # Total energy per rank (pJ) (Joule)
system.mem_ctrl.dram.rank0.averagePower    790.438943                       # Core power per rank (mW) (Watt)
system.mem_ctrl.dram.rank0.totalIdleTime            0                       # Total Idle time Per DRAM Rank (Tick)
system.mem_ctrl.dram.rank0.pwrStateTime::IDLE   3476015800                       # Time in different power states (Tick)
system.mem_ctrl.dram.rank0.pwrStateTime::REF    333840000                       # Time in different power states (Tick)
system.mem_ctrl.dram.rank0.pwrStateTime::SREF            0                       # Time in different power states (Tick)
system.mem_ctrl.dram.rank0.pwrStateTime::PRE_PDN            0                       # Time in different power states (Tick)
system.mem_ctrl.dram.rank0.pwrStateTime::ACT   6190144200                       # Time in different power states (Tick)
system.mem_ctrl.dram.rank0.pwrStateTime::ACT_PDN            0                       # Time in different power states (Tick)
system.mem_ctrl.dram.rank1.actEnergy        211658160                       # Energy for activate commands per rank (pJ) (Joule)
system.mem_ctrl.dram.rank1.preEnergy        112498980                       # Energy for precharge commands per rank (pJ) (Joule)
system.mem_ctrl.dram.rank1.readEnergy      1445414460                       # Energy for read commands per rank (pJ) (Joule)
system.mem_ctrl.dram.rank1.writeEnergy     1038456360                       # Energy for write commands per rank (pJ) (Joule)
system.mem_ctrl.dram.rank1.refreshEnergy 789197760.000000                       # Energy for refresh commands per rank (pJ) (Joule)
system.mem_ctrl.dram.rank1.actBackEnergy   2953795860                       # Energy for active background per rank (pJ) (Joule)
system.mem_ctrl.dram.rank1.preBackEnergy   1352592960                       # Energy for precharge background per rank (pJ) (Joule)
system.mem_ctrl.dram.rank1.actPowerDownEnergy            0                       # Energy for active power-down per rank (pJ) (Joule)
system.mem_ctrl.dram.rank1.prePowerDownEnergy            0                       # Energy for precharge power-down per rank (pJ) (Joule)
system.mem_ctrl.dram.rank1.selfRefreshEnergy            0                       # Energy for self refresh per rank (pJ) (Joule)
system.mem_ctrl.dram.rank1.totalEnergy     7903614540                       # Total energy per rank (pJ) (Joule)
system.mem_ctrl.dram.rank1.averagePower    790.361454                       # Core power per rank (mW) (Watt)
system.mem_ctrl.dram.rank1.totalIdleTime            0                       # Total Idle time Per DRAM Rank (Tick)
system.mem_ctrl.dram.rank1.pwrStateTime::IDLE   3466614447                       # Time in different power states (Tick)
system.mem_ctrl.dram.rank1.pwrStateTime::REF    333840000                       # Time in different power states (Tick)
system.mem_ctrl.dram.rank1.pwrStateTime::SREF            0                       # Time in different power states (Tick)
system.mem_ctrl.dram.rank1.pwrStateTime::PRE_PDN            0                       # Time in different power states (Tick)
system.mem_ctrl.dram.rank1.pwrStateTime::ACT   6199545553                       # Time in different power states (Tick)
system.mem_ctrl.dram.rank1.pwrStateTime::ACT_PDN            0                       # Time in different power states (Tick)
system.mem_ctrl.power_state.pwrStateResidencyTicks::UNDEFINED  10000000000                       # Cumulative time (in ticks) in various power states (Tick)
system.membus.transDist::ReadResp                2746                       # Transaction distribution (Count)
system.membus.transDist::WritebackDirty        398020                       # Transaction distribution (Count)
system.membus.transDist::CleanEvict              1992                       # Transaction distribution (Count)
system.membus.transDist::ReadExReq             402104                       # Transaction distribution (Count)
system.membus.transDist::ReadExResp            402100                       # Transaction distribution (Count)
system.membus.transDist::ReadSharedReq           2746                       # Transaction distribution (Count)
system.membus.pktCount_system.l2cache.mem_side_port::system.mem_ctrl.port      1209708                       # Packet count per connected requestor and responder (Count)
system.membus.pktSize_system.l2cache.mem_side_port::system.mem_ctrl.port     51383424                       # Cumulative packet size per connected requestor and responder (Byte)
system.membus.snoops                                0                       # Total snoops (Count)
system.membus.snoopTraffic                          0                       # Total snoop traffic (Byte)
system.membus.snoopFanout::samples             404850                       # Request fanout histogram (Count)
system.membus.snoopFanout::mean                     0                       # Request fanout histogram (Count)
system.membus.snoopFanout::stdev                    0                       # Request fanout histogram (Count)
system.membus.snoopFanout::underflows               0      0.00%      0.00% # Request fanout histogram (Count)
system.membus.snoopFanout::0                   404850    100.00%    100.00% # Request fanout histogram (Count)
system.membus.snoopFanout::1                        0      0.00%    100.00% # Request fanout histogram (Count)
system.membus.snoopFanout::overflows                0      0.00%    100.00% # Request fanout histogram (Count)
system.membus.snoopFanout::min_value                0                       # Request fanout histogram (Count)
system.membus.snoopFanout::max_value                0                       # Request fanout histogram (Count)
system.membus.snoopFanout::total               404850                       # Request fanout histogram (Count)
system.membus.power_state.pwrStateResidencyTicks::UNDEFINED  10000000000                       # Cumulative time (in ticks) in various power states (Tick)
system.membus.reqLayer0.occupancy           798181686                       # Layer occupancy (ticks) (Tick)
system.membus.reqLayer0.utilization               0.1                       # Layer utilization (Ratio)
system.membus.respLayer0.occupancy          750833063                       # Layer occupancy (ticks) (Tick)
system.membus.respLayer0.utilization              0.1                       # Layer utilization (Ratio)
system.membus.snoop_filter.totRequests         804862                       # Total number of requests made to the snoop filter. (Count)
system.membus.snoop_filter.hitSingleRequests       400012                       # Number of requests hitting in the snoop filter with a single holder of the requested data. (Count)
system.membus.snoop_filter.hitMultiRequests            0                       # Number of requests hitting in the snoop filter with multiple (>1) holders of the requested data. (Count)
system.membus.snoop_filter.totSnoops                0                       # Total number of snoops made to the snoop filter. (Count)
system.membus.snoop_filter.hitSingleSnoops            0                       # Number of snoops hitting in the snoop filter with a single holder of the requested data. (Count)
system.membus.snoop_filter.hitMultiSnoops            0                       # Number of snoops hitting in the snoop filter with multiple (>1) holders of the requested data. (Count)
system.workload.inst.arm                            0                       # number of arm instructions executed (Count)
system.workload.inst.quiesce                        0                       # number of quiesce instructions executed (Count)
system.cpu0.idleCycles                       20318032                       # Total number of cycles that the object has spent stopped (Unspecified)
system.cpu0.tickCycles                        9711903                       # Number of cycles that the object actually ticked (Unspecified)
system.cpu1.idleCycles                       20314212                       # Total number of cycles that the object has spent stopped (Unspecified)
system.cpu1.tickCycles                        9715818                       # Number of cycles that the object actually ticked (Unspecified)

---------- End Simulation Statistics   ----------
