---------- Begin Simulation Statistics ----------
simSeconds                                   0.010000                       # Number of seconds simulated (Second)
simTicks                                  10000000000                       # Number of ticks simulated (Tick)
finalTick                                 10000000000                       # Number of ticks from beginning of simulation (restored from checkpoints and never reset) (Tick)
simFreq                                  1000000000000                       # The number of ticks per simulated second ((Tick/Second))
hostSeconds                                     63.36                       # Real time elapsed on the host (Second)
hostTickRate                                157816823                       # The number of ticks simulated per host second (ticks/s) ((Tick/Second))
hostMemory                                    4393664                       # Number of bytes of host memory used (Byte)
simInsts                                     27889042                       # Number of instructions simulated (Count)
simOps                                       27889138                       # Number of ops (including micro ops) simulated (Count)
hostInstRate                                   440130                       # Simulator instruction rate (inst/s) ((Count/Second))
hostOpRate                                     440131                       # Simulator op (including micro ops) rate (op/s) ((Count/Second))
system.cachebus.transDist::ReadResp              5592                       # Transaction distribution (Count)
system.cachebus.transDist::WritebackDirty      1238307                       # Transaction distribution (Count)
system.cachebus.transDist::CleanEvict          407727                       # Transaction distribution (Count)
system.cachebus.transDist::ReadExReq           622166                       # Transaction distribution (Count)
system.cachebus.transDist::ReadExResp          622160                       # Transaction distribution (Count)
system.cachebus.transDist::ReadSharedReq         5592                       # Transaction distribution (Count)
system.cachebus.pktCount_system.l1dcaches0.mem_side_port::system.l2cache.cpu_side_port       469101                       # Packet count per connected requestor and responder (Count)
system.cachebus.pktCount_system.l1icaches0.mem_side_port::system.l2cache.cpu_side_port          744                       # Packet count per connected requestor and responder (Count)
system.cachebus.pktCount_system.l1dcaches1.mem_side_port::system.l2cache.cpu_side_port       469125                       # Packet count per connected requestor and responder (Count)
system.cachebus.pktCount_system.l1icaches1.mem_side_port::system.l2cache.cpu_side_port          744                       # Packet count per connected requestor and responder (Count)
system.cachebus.pktCount_system.l1dcaches2.mem_side_port::system.l2cache.cpu_side_port       469075                       # Packet count per connected requestor and responder (Count)
system.cachebus.pktCount_system.l1icaches2.mem_side_port::system.l2cache.cpu_side_port          744                       # Packet count per connected requestor and responder (Count)
system.cachebus.pktCount_system.l1dcaches3.mem_side_port::system.l2cache.cpu_side_port       469461                       # Packet count per connected requestor and responder (Count)
system.cachebus.pktCount_system.l1icaches3.mem_side_port::system.l2cache.cpu_side_port          744                       # Packet count per connected requestor and responder (Count)
system.cachebus.pktCount::total               1879738                       # Packet count per connected requestor and responder (Count)
system.cachebus.pktSize_system.l1dcaches0.mem_side_port::system.l2cache.cpu_side_port     19939968                       # Cumulative packet size per connected requestor and responder (Byte)
system.cachebus.pktSize_system.l1icaches0.mem_side_port::system.l2cache.cpu_side_port        23744                       # Cumulative packet size per connected requestor and responder (Byte)
system.cachebus.pktSize_system.l1dcaches1.mem_side_port::system.l2cache.cpu_side_port     19940992                       # Cumulative packet size per connected requestor and responder (Byte)
system.cachebus.pktSize_system.l1icaches1.mem_side_port::system.l2cache.cpu_side_port        23744                       # Cumulative packet size per connected requestor and responder (Byte)
system.cachebus.pktSize_system.l1dcaches2.mem_side_port::system.l2cache.cpu_side_port     19938816                       # Cumulative packet size per connected requestor and responder (Byte)
system.cachebus.pktSize_system.l1icaches2.mem_side_port::system.l2cache.cpu_side_port        23744                       # Cumulative packet size per connected requestor and responder (Byte)
system.cachebus.pktSize_system.l1dcaches3.mem_side_port::system.l2cache.cpu_side_port     19955392                       # Cumulative packet size per connected requestor and responder (Byte)
system.cachebus.pktSize_system.l1icaches3.mem_side_port::system.l2cache.cpu_side_port        23744                       # Cumulative packet size per connected requestor and responder (Byte)
system.cachebus.pktSize::total               79870144                       # Cumulative packet size per connected requestor and responder (Byte)
system.cachebus.snoops                        1021806                       # Total snoops (Count)
system.cachebus.snoopTraffic                 39557632                       # Total snoop traffic (Byte)
system.cachebus.snoopFanout::samples          1649564                       # Request fanout histogram (Count)
system.cachebus.snoopFanout::mean            0.242463                       # Request fanout histogram (Count)
system.cachebus.snoopFanout::stdev           0.428573                       # Request fanout histogram (Count)
system.cachebus.snoopFanout::underflows             0      0.00%      0.00% # Request fanout histogram (Count)
system.cachebus.snoopFanout::0                1249605     75.75%     75.75% # Request fanout histogram (Count)
system.cachebus.snoopFanout::1                 399959     24.25%    100.00% # Request fanout histogram (Count)
system.cachebus.snoopFanout::2                      0      0.00%    100.00% # Request fanout histogram (Count)
system.cachebus.snoopFanout::3                      0      0.00%    100.00% # Request fanout histogram (Count)
system.cachebus.snoopFanout::4                      0      0.00%    100.00% # Request fanout histogram (Count)
system.cachebus.snoopFanout::5                      0      0.00%    100.00% # Request fanout histogram (Count)
system.cachebus.snoopFanout::6                      0      0.00%    100.00% # Request fanout histogram (Count)
system.cachebus.snoopFanout::7                      0      0.00%    100.00% # Request fanout histogram (Count)
system.cachebus.snoopFanout::8                      0      0.00%    100.00% # Request fanout histogram (Count)
system.cachebus.snoopFanout::overflows              0      0.00%    100.00% # Request fanout histogram (Count)
system.cachebus.snoopFanout::min_value              0                       # Request fanout histogram (Count)
system.cachebus.snoopFanout::max_value              1                       # Request fanout histogram (Count)
system.cachebus.snoopFanout::total            1649564                       # Request fanout histogram (Count)
system.cachebus.power_state.pwrStateResidencyTicks::UNDEFINED  10000000000                       # Cumulative time (in ticks) in various power states (Tick)
system.cachebus.reqLayer0.occupancy        1243043046                       # Layer occupancy (ticks) (Tick)
system.cachebus.reqLayer0.utilization             0.1                       # Layer utilization (Ratio)
system.cachebus.respLayer0.occupancy        260634105                       # Layer occupancy (ticks) (Tick)
system.cachebus.respLayer0.utilization            0.0                       # Layer utilization (Ratio)
system.cachebus.respLayer1.occupancy           617715                       # Layer occupancy (ticks) (Tick)
system.cachebus.respLayer1.utilization            0.0                       # Layer utilization (Ratio)
system.cachebus.respLayer2.occupancy        260647425                       # Layer occupancy (ticks) (Tick)
system.cachebus.respLayer2.utilization            0.0                       # Layer utilization (Ratio)
system.cachebus.respLayer3.occupancy           617715                       # Layer occupancy (ticks) (Tick)
system.cachebus.respLayer3.utilization            0.0                       # Layer utilization (Ratio)
system.cachebus.respLayer4.occupancy        260620785                       # Layer occupancy (ticks) (Tick)
system.cachebus.respLayer4.utilization            0.0                       # Layer utilization (Ratio)
system.cachebus.respLayer5.occupancy           617715                       # Layer occupancy (ticks) (Tick)
system.cachebus.respLayer5.utilization            0.0                       # Layer utilization (Ratio)
system.cachebus.respLayer6.occupancy        260833905                       # Layer occupancy (ticks) (Tick)
system.cachebus.respLayer6.utilization            0.0                       # Layer utilization (Ratio)
system.cachebus.respLayer7.occupancy           618047                       # Layer occupancy (ticks) (Tick)
system.cachebus.respLayer7.utilization            0.0                       # Layer utilization (Ratio)
system.cachebus.snoop_filter.totRequests      1251986                       # Total number of requests made to the snoop filter. (Count)
system.cachebus.snoop_filter.hitSingleRequests       624228                       # Number of requests hitting in the snoop filter with a single holder of the requested data. (Count)
system.cachebus.snoop_filter.hitMultiRequests            0                       # Number of requests hitting in the snoop filter with multiple (>1) holders of the requested data. (Count)
system.cachebus.snoop_filter.totSnoops         399959                       # Total number of snoops made to the snoop filter. (Count)
system.cachebus.snoop_filter.hitSingleSnoops       399959                       # Number of snoops hitting in the snoop filter with a single holder of the requested data. (Count)
system.cachebus.snoop_filter.hitMultiSnoops            0                       # Number of snoops hitting in the snoop filter with multiple (>1) holders of the requested data. (Count)
system.clk_domain.clock                           333                       # Clock period in ticks (Tick)
system.clk_domain.voltage_domain.voltage            1                       # Voltage in Volts (Volt)
system.cpu0.numCycles                        30029933                       # Number of cpu cycles simulated (Cycle)
system.cpu0.cpi                              4.307869                       # CPI: cycles per instruction (core level) ((Cycle/Count))
system.cpu0.ipc                              0.232133                       # IPC: instructions per cycle (core level) ((Count/Cycle))
system.cpu0.numWorkItemsStarted                     0                       # Number of work items this cpu started (Count)
system.cpu0.numWorkItemsCompleted                   0                       # Number of work items this cpu completed (Count)
system.cpu0.branchPred.lookups_0::NoBranch           25      0.00%      0.00% # Number of BP lookups (Count)
system.cpu0.branchPred.lookups_0::Return         2294      0.35%      0.35% # Number of BP lookups (Count)
system.cpu0.branchPred.lookups_0::CallDirect         2426      0.37%      0.72% # Number of BP lookups (Count)
system.cpu0.branchPred.lookups_0::CallIndirect           10      0.00%      0.72% # Number of BP lookups (Count)
system.cpu0.branchPred.lookups_0::DirectCond       650951     98.47%     99.19% # Number of BP lookups (Count)
system.cpu0.branchPred.lookups_0::DirectUncond         3320      0.50%     99.69% # Number of BP lookups (Count)
system.cpu0.branchPred.lookups_0::IndirectCond            0      0.00%     99.69% # Number of BP lookups (Count)
system.cpu0.branchPred.lookups_0::IndirectUncond         2061      0.31%    100.00% # Number of BP lookups (Count)
system.cpu0.branchPred.lookups_0::total        661087                       # Number of BP lookups (Count)
system.cpu0.branchPred.squashes_0::NoBranch           11      0.85%      0.85% # Number of branches that got squashed (completely removed) as an earlier branch was mispredicted. (Count)
system.cpu0.branchPred.squashes_0::Return           97      7.50%      8.35% # Number of branches that got squashed (completely removed) as an earlier branch was mispredicted. (Count)
system.cpu0.branchPred.squashes_0::CallDirect          232     17.94%     26.30% # Number of branches that got squashed (completely removed) as an earlier branch was mispredicted. (Count)
system.cpu0.branchPred.squashes_0::CallIndirect            6      0.46%     26.76% # Number of branches that got squashed (completely removed) as an earlier branch was mispredicted. (Count)
system.cpu0.branchPred.squashes_0::DirectCond          796     61.56%     88.32% # Number of branches that got squashed (completely removed) as an earlier branch was mispredicted. (Count)
system.cpu0.branchPred.squashes_0::DirectUncond          136     10.52%     98.84% # Number of branches that got squashed (completely removed) as an earlier branch was mispredicted. (Count)
system.cpu0.branchPred.squashes_0::IndirectCond            0      0.00%     98.84% # Number of branches that got squashed (completely removed) as an earlier branch was mispredicted. (Count)
system.cpu0.branchPred.squashes_0::IndirectUncond           15      1.16%    100.00% # Number of branches that got squashed (completely removed) as an earlier branch was mispredicted. (Count)
system.cpu0.branchPred.squashes_0::total         1293                       # Number of branches that got squashed (completely removed) as an earlier branch was mispredicted. (Count)
system.cpu0.branchPred.corrected_0::NoBranch           14      2.88%      2.88% # Number of branches that got corrected but not yet commited. Branches get corrected by decode or after execute. Also a branch misprediction can be detected out-of-order. Therefore, a corrected branch might not end up beeing committed in case an even earlier branch was mispredicted (Count)
system.cpu0.branchPred.corrected_0::Return            7      1.44%      4.32% # Number of branches that got corrected but not yet commited. Branches get corrected by decode or after execute. Also a branch misprediction can be detected out-of-order. Therefore, a corrected branch might not end up beeing committed in case an even earlier branch was mispredicted (Count)
system.cpu0.branchPred.corrected_0::CallDirect           93     19.14%     23.46% # Number of branches that got corrected but not yet commited. Branches get corrected by decode or after execute. Also a branch misprediction can be detected out-of-order. Therefore, a corrected branch might not end up beeing committed in case an even earlier branch was mispredicted (Count)
system.cpu0.branchPred.corrected_0::CallIndirect            4      0.82%     24.28% # Number of branches that got corrected but not yet commited. Branches get corrected by decode or after execute. Also a branch misprediction can be detected out-of-order. Therefore, a corrected branch might not end up beeing committed in case an even earlier branch was mispredicted (Count)
system.cpu0.branchPred.corrected_0::DirectCond          303     62.35%     86.63% # Number of branches that got corrected but not yet commited. Branches get corrected by decode or after execute. Also a branch misprediction can be detected out-of-order. Therefore, a corrected branch might not end up beeing committed in case an even earlier branch was mispredicted (Count)
system.cpu0.branchPred.corrected_0::DirectUncond           54     11.11%     97.74% # Number of branches that got corrected but not yet commited. Branches get corrected by decode or after execute. Also a branch misprediction can be detected out-of-order. Therefore, a corrected branch might not end up beeing committed in case an even earlier branch was mispredicted (Count)
system.cpu0.branchPred.corrected_0::IndirectCond            0      0.00%     97.74% # Number of branches that got corrected but not yet commited. Branches get corrected by decode or after execute. Also a branch misprediction can be detected out-of-order. Therefore, a corrected branch might not end up beeing committed in case an even earlier branch was mispredicted (Count)
system.cpu0.branchPred.corrected_0::IndirectUncond           11      2.26%    100.00% # Number of branches that got corrected but not yet commited. Branches get corrected by decode or after execute. Also a branch misprediction can be detected out-of-order. Therefore, a corrected branch might not end up beeing committed in case an even earlier branch was mispredicted (Count)
system.cpu0.branchPred.corrected_0::total          486                       # Number of branches that got corrected but not yet commited. Branches get corrected by decode or after execute. Also a branch misprediction can be detected out-of-order. Therefore, a corrected branch might not end up beeing committed in case an even earlier branch was mispredicted (Count)
system.cpu0.branchPred.earlyResteers_0::NoBranch            0                       # Number of branches that got redirected after decode. (Count)
system.cpu0.branchPred.earlyResteers_0::Return            0                       # Number of branches that got redirected after decode. (Count)
system.cpu0.branchPred.earlyResteers_0::CallDirect            0                       # Number of branches that got redirected after decode. (Count)
system.cpu0.branchPred.earlyResteers_0::CallIndirect            0                       # Number of branches that got redirected after decode. (Count)
system.cpu0.branchPred.earlyResteers_0::DirectCond            0                       # Number of branches that got redirected after decode. (Count)
system.cpu0.branchPred.earlyResteers_0::DirectUncond            0                       # Number of branches that got redirected after decode. (Count)
system.cpu0.branchPred.earlyResteers_0::IndirectCond            0                       # Number of branches that got redirected after decode. (Count)
system.cpu0.branchPred.earlyResteers_0::IndirectUncond            0                       # Number of branches that got redirected after decode. (Count)
system.cpu0.branchPred.earlyResteers_0::total            0                       # Number of branches that got redirected after decode. (Count)
system.cpu0.branchPred.committed_0::NoBranch           14      0.00%      0.00% # Number of branches finally committed  (Count)
system.cpu0.branchPred.committed_0::Return         2197      0.33%      0.34% # Number of branches finally committed  (Count)
system.cpu0.branchPred.committed_0::CallDirect         2194      0.33%      0.67% # Number of branches finally committed  (Count)
system.cpu0.branchPred.committed_0::CallIndirect            4      0.00%      0.67% # Number of branches finally committed  (Count)
system.cpu0.branchPred.committed_0::DirectCond       650152     98.54%     99.21% # Number of branches finally committed  (Count)
system.cpu0.branchPred.committed_0::DirectUncond         3184      0.48%     99.69% # Number of branches finally committed  (Count)
system.cpu0.branchPred.committed_0::IndirectCond            0      0.00%     99.69% # Number of branches finally committed  (Count)
system.cpu0.branchPred.committed_0::IndirectUncond         2046      0.31%    100.00% # Number of branches finally committed  (Count)
system.cpu0.branchPred.committed_0::total       659791                       # Number of branches finally committed  (Count)
system.cpu0.branchPred.mispredicted_0::NoBranch           14      2.88%      2.88% # Number of committed branches that were mispredicted. (Count)
system.cpu0.branchPred.mispredicted_0::Return            7      1.44%      4.32% # Number of committed branches that were mispredicted. (Count)
system.cpu0.branchPred.mispredicted_0::CallDirect           93     19.14%     23.46% # Number of committed branches that were mispredicted. (Count)
system.cpu0.branchPred.mispredicted_0::CallIndirect            4      0.82%     24.28% # Number of committed branches that were mispredicted. (Count)
system.cpu0.branchPred.mispredicted_0::DirectCond          303     62.35%     86.63% # Number of committed branches that were mispredicted. (Count)
system.cpu0.branchPred.mispredicted_0::DirectUncond           54     11.11%     97.74% # Number of committed branches that were mispredicted. (Count)
system.cpu0.branchPred.mispredicted_0::IndirectCond            0      0.00%     97.74% # Number of committed branches that were mispredicted. (Count)
system.cpu0.branchPred.mispredicted_0::IndirectUncond           11      2.26%    100.00% # Number of committed branches that were mispredicted. (Count)
system.cpu0.branchPred.mispredicted_0::total          486                       # Number of committed branches that were mispredicted. (Count)
system.cpu0.branchPred.targetProvider_0::NoTarget        18500      2.80%      2.80% # The component providing the target for taken branches (Count)
system.cpu0.branchPred.targetProvider_0::BTB       638252     96.55%     99.34% # The component providing the target for taken branches (Count)
system.cpu0.branchPred.targetProvider_0::RAS         2292      0.35%     99.69% # The component providing the target for taken branches (Count)
system.cpu0.branchPred.targetProvider_0::Indirect         2043      0.31%    100.00% # The component providing the target for taken branches (Count)
system.cpu0.branchPred.targetProvider_0::total       661087                       # The component providing the target for taken branches (Count)
system.cpu0.branchPred.targetWrong_0::NoBranch          421     89.19%     89.19% # Number of branches where the target was incorrect or not available at prediction time. (Count)
system.cpu0.branchPred.targetWrong_0::Return           44      9.32%     98.52% # Number of branches where the target was incorrect or not available at prediction time. (Count)
system.cpu0.branchPred.targetWrong_0::CallDirect            7      1.48%    100.00% # Number of branches where the target was incorrect or not available at prediction time. (Count)
system.cpu0.branchPred.targetWrong_0::CallIndirect            0      0.00%    100.00% # Number of branches where the target was incorrect or not available at prediction time. (Count)
system.cpu0.branchPred.targetWrong_0::DirectCond            0      0.00%    100.00% # Number of branches where the target was incorrect or not available at prediction time. (Count)
system.cpu0.branchPred.targetWrong_0::DirectUncond            0      0.00%    100.00% # Number of branches where the target was incorrect or not available at prediction time. (Count)
system.cpu0.branchPred.targetWrong_0::IndirectCond            0      0.00%    100.00% # Number of branches where the target was incorrect or not available at prediction time. (Count)
system.cpu0.branchPred.targetWrong_0::IndirectUncond            0      0.00%    100.00% # Number of branches where the target was incorrect or not available at prediction time. (Count)
system.cpu0.branchPred.targetWrong_0::total          472                       # Number of branches where the target was incorrect or not available at prediction time. (Count)
system.cpu0.branchPred.condPredicted           650976                       # Number of conditional branches predicted (Count)
system.cpu0.branchPred.condPredictedTaken       633278                       # Number of conditional branches predicted as taken (Count)
system.cpu0.branchPred.condIncorrect              486                       # Number of conditional branches incorrect (Count)
system.cpu0.branchPred.predTakenBTBMiss           176                       # Number of branches predicted taken but missed in BTB (Count)
system.cpu0.branchPred.NotTakenMispredicted          443                       # Number branches predicted 'not taken' but turned out to be taken (Count)
system.cpu0.branchPred.TakenMispredicted           43                       # Number branches predicted taken but are actually not taken (Count)
system.cpu0.branchPred.BTBLookups              661087                       # Number of BTB lookups (Count)
system.cpu0.branchPred.BTBUpdates                 407                       # Number of BTB updates (Count)
system.cpu0.branchPred.BTBHits                 641550                       # Number of BTB hits (Count)
system.cpu0.branchPred.BTBHitRatio           0.970447                       # BTB Hit Ratio (Ratio)
system.cpu0.branchPred.BTBMispredicted            289                       # Number BTB mispredictions. No target found or target wrong (Count)
system.cpu0.branchPred.indirectLookups           2071                       # Number of indirect predictor lookups. (Count)
system.cpu0.branchPred.indirectHits              2043                       # Number of indirect target hits. (Count)
system.cpu0.branchPred.indirectMisses              28                       # Number of indirect misses. (Count)
system.cpu0.branchPred.indirectMispredicted            0                       # Number of mispredicted indirect branches. (Count)
system.cpu0.branchPred.btb.lookups::NoBranch           25      0.00%      0.00% # Number of BTB lookups (Count)
system.cpu0.branchPred.btb.lookups::Return         2294      0.35%      0.35% # Number of BTB lookups (Count)
system.cpu0.branchPred.btb.lookups::CallDirect         2426      0.37%      0.72% # Number of BTB lookups (Count)
system.cpu0.branchPred.btb.lookups::CallIndirect           10      0.00%      0.72% # Number of BTB lookups (Count)
system.cpu0.branchPred.btb.lookups::DirectCond       650951     98.47%     99.19% # Number of BTB lookups (Count)
system.cpu0.branchPred.btb.lookups::DirectUncond         3320      0.50%     99.69% # Number of BTB lookups (Count)
system.cpu0.branchPred.btb.lookups::IndirectCond            0      0.00%     99.69% # Number of BTB lookups (Count)
system.cpu0.branchPred.btb.lookups::IndirectUncond         2061      0.31%    100.00% # Number of BTB lookups (Count)
system.cpu0.branchPred.btb.lookups::total       661087                       # Number of BTB lookups (Count)
system.cpu0.branchPred.btb.misses::NoBranch           25      0.13%      0.13% # Number of BTB misses (Count)
system.cpu0.branchPred.btb.misses::Return         2294     11.74%     11.87% # Number of BTB misses (Count)
system.cpu0.branchPred.btb.misses::CallDirect          293      1.50%     13.37% # Number of BTB misses (Count)
system.cpu0.branchPred.btb.misses::CallIndirect           10      0.05%     13.42% # Number of BTB misses (Count)
system.cpu0.branchPred.btb.misses::DirectCond        14689     75.19%     88.61% # Number of BTB misses (Count)
system.cpu0.branchPred.btb.misses::DirectUncond          165      0.84%     89.45% # Number of BTB misses (Count)
system.cpu0.branchPred.btb.misses::IndirectCond            0      0.00%     89.45% # Number of BTB misses (Count)
system.cpu0.branchPred.btb.misses::IndirectUncond         2061     10.55%    100.00% # Number of BTB misses (Count)
system.cpu0.branchPred.btb.misses::total        19537                       # Number of BTB misses (Count)
system.cpu0.branchPred.btb.updates::NoBranch            0      0.00%      0.00% # Number of BTB updates (Count)
system.cpu0.branchPred.btb.updates::Return            0      0.00%      0.00% # Number of BTB updates (Count)
system.cpu0.branchPred.btb.updates::CallDirect           93     22.85%     22.85% # Number of BTB updates (Count)
system.cpu0.branchPred.btb.updates::CallIndirect            0      0.00%     22.85% # Number of BTB updates (Count)
system.cpu0.branchPred.btb.updates::DirectCond          260     63.88%     86.73% # Number of BTB updates (Count)
system.cpu0.branchPred.btb.updates::DirectUncond           54     13.27%    100.00% # Number of BTB updates (Count)
system.cpu0.branchPred.btb.updates::IndirectCond            0      0.00%    100.00% # Number of BTB updates (Count)
system.cpu0.branchPred.btb.updates::IndirectUncond            0      0.00%    100.00% # Number of BTB updates (Count)
system.cpu0.branchPred.btb.updates::total          407                       # Number of BTB updates (Count)
system.cpu0.branchPred.btb.mispredict::NoBranch            0      0.00%      0.00% # Number of BTB mispredictions. No target found or target wrong. (Count)
system.cpu0.branchPred.btb.mispredict::Return            0      0.00%      0.00% # Number of BTB mispredictions. No target found or target wrong. (Count)
system.cpu0.branchPred.btb.mispredict::CallDirect           93     22.85%     22.85% # Number of BTB mispredictions. No target found or target wrong. (Count)
system.cpu0.branchPred.btb.mispredict::CallIndirect            0      0.00%     22.85% # Number of BTB mispredictions. No target found or target wrong. (Count)
system.cpu0.branchPred.btb.mispredict::DirectCond          260     63.88%     86.73% # Number of BTB mispredictions. No target found or target wrong. (Count)
system.cpu0.branchPred.btb.mispredict::DirectUncond           54     13.27%    100.00% # Number of BTB mispredictions. No target found or target wrong. (Count)
system.cpu0.branchPred.btb.mispredict::IndirectCond            0      0.00%    100.00% # Number of BTB mispredictions. No target found or target wrong. (Count)
system.cpu0.branchPred.btb.mispredict::IndirectUncond            0      0.00%    100.00% # Number of BTB mispredictions. No target found or target wrong. (Count)
system.cpu0.branchPred.btb.mispredict::total          407                       # Number of BTB mispredictions. No target found or target wrong. (Count)
system.cpu0.branchPred.btb.power_state.pwrStateResidencyTicks::UNDEFINED  10000000000                       # Cumulative time (in ticks) in various power states (Tick)
system.cpu0.branchPred.indirectBranchPred.lookups         2071                       # Number of lookups (Count)
system.cpu0.branchPred.indirectBranchPred.hits         2043                       # Number of hits of a tag (Count)
system.cpu0.branchPred.indirectBranchPred.misses           28                       # Number of misses (Count)
system.cpu0.branchPred.indirectBranchPred.targetRecords           15                       # Number of targets that where recorded/installed in the cache (Count)
system.cpu0.branchPred.indirectBranchPred.indirectRecords         2086                       # Number of indirect branches/calls recorded in the indirect hist (Count)
system.cpu0.branchPred.indirectBranchPred.speculativeOverflows            9                       # Number of times more than the allowed capacity for speculative branches/calls where in flight and destroy the path history (Count)
system.cpu0.branchPred.ras.pushes                2533                       # Number of times a PC was pushed onto the RAS (Count)
system.cpu0.branchPred.ras.pops                  2532                       # Number of times a PC was poped from the RAS (Count)
system.cpu0.branchPred.ras.squashes               335                       # Number of times the stack operation was squashed due to wrong speculation. (Count)
system.cpu0.branchPred.ras.used                  2197                       # Number of times the RAS is the provider (Count)
system.cpu0.branchPred.ras.correct               2190                       # Number of times the RAS is the provider and the prediction is correct (Count)
system.cpu0.branchPred.ras.incorrect                7                       # Number of times the RAS is the provider and the prediction is wrong (Count)
system.cpu0.commitStats0.numInsts             6970948                       # Number of instructions committed (thread level) (Count)
system.cpu0.commitStats0.numOps               6970972                       # Number of ops (including micro ops) committed (thread level) (Count)
system.cpu0.commitStats0.numInstsNotNOP             0                       # Number of instructions committed excluding NOPs or prefetches (Count)
system.cpu0.commitStats0.numOpsNotNOP               0                       # Number of Ops (including micro ops) Simulated (Count)
system.cpu0.commitStats0.cpi                 4.307869                       # CPI: cycles per instruction (thread level) ((Cycle/Count))
system.cpu0.commitStats0.ipc                 0.232133                       # IPC: instructions per cycle (thread level) ((Count/Cycle))
system.cpu0.commitStats0.numMemRefs                 0                       # Number of memory references committed (Count)
system.cpu0.commitStats0.numFpInsts                 0                       # Number of float instructions (Count)
system.cpu0.commitStats0.numIntInsts                0                       # Number of integer instructions (Count)
system.cpu0.commitStats0.numLoadInsts               0                       # Number of load instructions (Count)
system.cpu0.commitStats0.numStoreInsts              0                       # Number of store instructions (Count)
system.cpu0.commitStats0.numVecInsts                0                       # Number of vector instructions (Count)
system.cpu0.commitStats0.committedInstType::No_OpClass           56      0.00%      0.00% # Class of committed instruction. (Count)
system.cpu0.commitStats0.committedInstType::IntAlu      3834275     55.00%     55.00% # Class of committed instruction. (Count)
system.cpu0.commitStats0.committedInstType::IntMult           11      0.00%     55.00% # Class of committed instruction. (Count)
system.cpu0.commitStats0.committedInstType::IntDiv            3      0.00%     55.00% # Class of committed instruction. (Count)
system.cpu0.commitStats0.committedInstType::FloatAdd            0      0.00%     55.00% # Class of committed instruction. (Count)
system.cpu0.commitStats0.committedInstType::FloatCmp            0      0.00%     55.00% # Class of committed instruction. (Count)
system.cpu0.commitStats0.committedInstType::FloatCvt       621569      8.92%     63.92% # Class of committed instruction. (Count)
system.cpu0.commitStats0.committedInstType::FloatMult      1243138     17.83%     81.75% # Class of committed instruction. (Count)
system.cpu0.commitStats0.committedInstType::FloatMultAcc            0      0.00%     81.75% # Class of committed instruction. (Count)
system.cpu0.commitStats0.committedInstType::FloatDiv            0      0.00%     81.75% # Class of committed instruction. (Count)
system.cpu0.commitStats0.committedInstType::FloatMisc            0      0.00%     81.75% # Class of committed instruction. (Count)
system.cpu0.commitStats0.committedInstType::FloatSqrt            0      0.00%     81.75% # Class of committed instruction. (Count)
system.cpu0.commitStats0.committedInstType::SimdAdd            0      0.00%     81.75% # Class of committed instruction. (Count)
system.cpu0.commitStats0.committedInstType::SimdAddAcc            0      0.00%     81.75% # Class of committed instruction. (Count)
system.cpu0.commitStats0.committedInstType::SimdAlu            0      0.00%     81.75% # Class of committed instruction. (Count)
system.cpu0.commitStats0.committedInstType::SimdCmp            0      0.00%     81.75% # Class of committed instruction. (Count)
system.cpu0.commitStats0.committedInstType::SimdCvt            0      0.00%     81.75% # Class of committed instruction. (Count)
system.cpu0.commitStats0.committedInstType::SimdMisc            0      0.00%     81.75% # Class of committed instruction. (Count)
system.cpu0.commitStats0.committedInstType::SimdMult            0      0.00%     81.75% # Class of committed instruction. (Count)
system.cpu0.commitStats0.committedInstType::SimdMultAcc            0      0.00%     81.75% # Class of committed instruction. (Count)
system.cpu0.commitStats0.committedInstType::SimdMatMultAcc            0      0.00%     81.75% # Class of committed instruction. (Count)
system.cpu0.commitStats0.committedInstType::SimdShift            0      0.00%     81.75% # Class of committed instruction. (Count)
system.cpu0.commitStats0.committedInstType::SimdShiftAcc            0      0.00%     81.75% # Class of committed instruction. (Count)
system.cpu0.commitStats0.committedInstType::SimdDiv            0      0.00%     81.75% # Class of committed instruction. (Count)
system.cpu0.commitStats0.committedInstType::SimdSqrt            0      0.00%     81.75% # Class of committed instruction. (Count)
system.cpu0.commitStats0.committedInstType::SimdFloatAdd            0      0.00%     81.75% # Class of committed instruction. (Count)
system.cpu0.commitStats0.committedInstType::SimdFloatAlu            0      0.00%     81.75% # Class of committed instruction. (Count)
system.cpu0.commitStats0.committedInstType::SimdFloatCmp            0      0.00%     81.75% # Class of committed instruction. (Count)
system.cpu0.commitStats0.committedInstType::SimdFloatCvt            0      0.00%     81.75% # Class of committed instruction. (Count)
system.cpu0.commitStats0.committedInstType::SimdFloatDiv            0      0.00%     81.75% # Class of committed instruction. (Count)
system.cpu0.commitStats0.committedInstType::SimdFloatMisc            0      0.00%     81.75% # Class of committed instruction. (Count)
system.cpu0.commitStats0.committedInstType::SimdFloatMult            0      0.00%     81.75% # Class of committed instruction. (Count)
system.cpu0.commitStats0.committedInstType::SimdFloatMultAcc            0      0.00%     81.75% # Class of committed instruction. (Count)
system.cpu0.commitStats0.committedInstType::SimdFloatMatMultAcc            0      0.00%     81.75% # Class of committed instruction. (Count)
system.cpu0.commitStats0.committedInstType::SimdFloatSqrt            0      0.00%     81.75% # Class of committed instruction. (Count)
system.cpu0.commitStats0.committedInstType::SimdReduceAdd            0      0.00%     81.75% # Class of committed instruction. (Count)
system.cpu0.commitStats0.committedInstType::SimdReduceAlu            0      0.00%     81.75% # Class of committed instruction. (Count)
system.cpu0.commitStats0.committedInstType::SimdReduceCmp            0      0.00%     81.75% # Class of committed instruction. (Count)
system.cpu0.commitStats0.committedInstType::SimdFloatReduceAdd            0      0.00%     81.75% # Class of committed instruction. (Count)
system.cpu0.commitStats0.committedInstType::SimdFloatReduceCmp            0      0.00%     81.75% # Class of committed instruction. (Count)
system.cpu0.commitStats0.committedInstType::SimdAes            0      0.00%     81.75% # Class of committed instruction. (Count)
system.cpu0.commitStats0.committedInstType::SimdAesMix            0      0.00%     81.75% # Class of committed instruction. (Count)
system.cpu0.commitStats0.committedInstType::SimdSha1Hash            0      0.00%     81.75% # Class of committed instruction. (Count)
system.cpu0.commitStats0.committedInstType::SimdSha1Hash2            0      0.00%     81.75% # Class of committed instruction. (Count)
system.cpu0.commitStats0.committedInstType::SimdSha256Hash            0      0.00%     81.75% # Class of committed instruction. (Count)
system.cpu0.commitStats0.committedInstType::SimdSha256Hash2            0      0.00%     81.75% # Class of committed instruction. (Count)
system.cpu0.commitStats0.committedInstType::SimdShaSigma2            0      0.00%     81.75% # Class of committed instruction. (Count)
system.cpu0.commitStats0.committedInstType::SimdShaSigma3            0      0.00%     81.75% # Class of committed instruction. (Count)
system.cpu0.commitStats0.committedInstType::SimdPredAlu            0      0.00%     81.75% # Class of committed instruction. (Count)
system.cpu0.commitStats0.committedInstType::Matrix            0      0.00%     81.75% # Class of committed instruction. (Count)
system.cpu0.commitStats0.committedInstType::MatrixMov            0      0.00%     81.75% # Class of committed instruction. (Count)
system.cpu0.commitStats0.committedInstType::MatrixOP            0      0.00%     81.75% # Class of committed instruction. (Count)
system.cpu0.commitStats0.committedInstType::MemRead        20876      0.30%     82.05% # Class of committed instruction. (Count)
system.cpu0.commitStats0.committedInstType::MemWrite         5464      0.08%     82.13% # Class of committed instruction. (Count)
system.cpu0.commitStats0.committedInstType::FloatMemRead            2      0.00%     82.13% # Class of committed instruction. (Count)
system.cpu0.commitStats0.committedInstType::FloatMemWrite      1245578     17.87%    100.00% # Class of committed instruction. (Count)
system.cpu0.commitStats0.committedInstType::IprAccess            0      0.00%    100.00% # Class of committed instruction. (Count)
system.cpu0.commitStats0.committedInstType::InstPrefetch            0      0.00%    100.00% # Class of committed instruction. (Count)
system.cpu0.commitStats0.committedInstType::SimdUnitStrideLoad            0      0.00%    100.00% # Class of committed instruction. (Count)
system.cpu0.commitStats0.committedInstType::SimdUnitStrideStore            0      0.00%    100.00% # Class of committed instruction. (Count)
system.cpu0.commitStats0.committedInstType::SimdUnitStrideMaskLoad            0      0.00%    100.00% # Class of committed instruction. (Count)
system.cpu0.commitStats0.committedInstType::SimdUnitStrideMaskStore            0      0.00%    100.00% # Class of committed instruction. (Count)
system.cpu0.commitStats0.committedInstType::SimdStridedLoad            0      0.00%    100.00% # Class of committed instruction. (Count)
system.cpu0.commitStats0.committedInstType::SimdStridedStore            0      0.00%    100.00% # Class of committed instruction. (Count)
system.cpu0.commitStats0.committedInstType::SimdIndexedLoad            0      0.00%    100.00% # Class of committed instruction. (Count)
system.cpu0.commitStats0.committedInstType::SimdIndexedStore            0      0.00%    100.00% # Class of committed instruction. (Count)
system.cpu0.commitStats0.committedInstType::SimdWholeRegisterLoad            0      0.00%    100.00% # Class of committed instruction. (Count)
system.cpu0.commitStats0.committedInstType::SimdWholeRegisterStore            0      0.00%    100.00% # Class of committed instruction. (Count)
system.cpu0.commitStats0.committedInstType::SimdUnitStrideFaultOnlyFirstLoad            0      0.00%    100.00% # Class of committed instruction. (Count)
system.cpu0.commitStats0.committedInstType::SimdUnitStrideSegmentedLoad            0      0.00%    100.00% # Class of committed instruction. (Count)
system.cpu0.commitStats0.committedInstType::SimdUnitStrideSegmentedStore            0      0.00%    100.00% # Class of committed instruction. (Count)
system.cpu0.commitStats0.committedInstType::SimdExt            0      0.00%    100.00% # Class of committed instruction. (Count)
system.cpu0.commitStats0.committedInstType::SimdFloatExt            0      0.00%    100.00% # Class of committed instruction. (Count)
system.cpu0.commitStats0.committedInstType::SimdConfig            0      0.00%    100.00% # Class of committed instruction. (Count)
system.cpu0.commitStats0.committedInstType::total      6970972                       # Class of committed instruction. (Count)
system.cpu0.executeStats0.numInsts                  0                       # Number of executed instructions (Count)
system.cpu0.executeStats0.numNop                    0                       # Number of nop insts executed (Count)
system.cpu0.executeStats0.numBranches               0                       # Number of branches executed (Count)
system.cpu0.executeStats0.numLoadInsts              0                       # Number of load instructions executed (Count)
system.cpu0.executeStats0.numStoreInsts             0                       # Number of stores executed (Count)
system.cpu0.executeStats0.instRate                  0                       # Inst execution rate ((Count/Cycle))
system.cpu0.executeStats0.numFpRegWrites            0                       # Number of times the floating registers were written (Count)
system.cpu0.executeStats0.numMemRefs                0                       # Number of memory refs (Count)
system.cpu0.executeStats0.numVecAluAccesses            0                       # Number of vector alu accesses (Count)
system.cpu0.executeStats0.numDiscardedOps         7597                       # Number of ops (including micro ops) which were discarded before commit (Count)
system.cpu0.fetch2.intInstructions            3853848                       # Number of integer instructions successfully decoded (Count)
system.cpu0.fetch2.fpInstructions             1873212                       # Number of floating point instructions successfully decoded (Count)
system.cpu0.fetch2.vecInstructions                  0                       # Number of SIMD instructions successfully decoded (Count)
system.cpu0.fetch2.loadInstructions             22181                       # Number of memory load instructions successfully decoded (Count)
system.cpu0.fetch2.storeInstructions          1257735                       # Number of memory store instructions successfully decoded (Count)
system.cpu0.fetch2.amoInstructions                  0                       # Number of memory atomic instructions successfully decoded (Count)
system.cpu0.fetchStats0.numInsts                    0                       # Number of instructions fetched (thread level) (Count)
system.cpu0.fetchStats0.numOps                      0                       # Number of ops (including micro ops) fetched (thread level) (Count)
system.cpu0.fetchStats0.fetchRate                   0                       # Number of inst fetches per cycle ((Count/Cycle))
system.cpu0.fetchStats0.branchRate                  0                       # Number of branch fetches per cycle (Ratio)
system.cpu0.fetchStats0.numFetchSuspends            0                       # Number of times Execute suspended instruction fetching (Count)
system.cpu0.mmu.dtb.readHits                        0                       # read hits (Count)
system.cpu0.mmu.dtb.readMisses                      0                       # read misses (Count)
system.cpu0.mmu.dtb.readAccesses                    0                       # read accesses (Count)
system.cpu0.mmu.dtb.writeHits                       0                       # write hits (Count)
system.cpu0.mmu.dtb.writeMisses                     0                       # write misses (Count)
system.cpu0.mmu.dtb.writeAccesses                   0                       # write accesses (Count)
system.cpu0.mmu.dtb.hits                            0                       # Total TLB (read and write) hits (Count)
system.cpu0.mmu.dtb.misses                          0                       # Total TLB (read and write) misses (Count)
system.cpu0.mmu.dtb.accesses                        0                       # Total TLB (read and write) accesses (Count)
system.cpu0.mmu.dtb.walker.num_4kb_walks            0                       # Completed page walks with 4KB pages (Count)
system.cpu0.mmu.dtb.walker.num_2mb_walks            0                       # Completed page walks with 2MB pages (Count)
system.cpu0.mmu.dtb.walker.power_state.pwrStateResidencyTicks::UNDEFINED  10000000000                       # Cumulative time (in ticks) in various power states (Tick)
system.cpu0.mmu.itb.readHits                        0                       # read hits (Count)
system.cpu0.mmu.itb.readMisses                      0                       # read misses (Count)
system.cpu0.mmu.itb.readAccesses                    0                       # read accesses (Count)
system.cpu0.mmu.itb.writeHits                       0                       # write hits (Count)
system.cpu0.mmu.itb.writeMisses                     0                       # write misses (Count)
system.cpu0.mmu.itb.writeAccesses                   0                       # write accesses (Count)
system.cpu0.mmu.itb.hits                            0                       # Total TLB (read and write) hits (Count)
system.cpu0.mmu.itb.misses                          0                       # Total TLB (read and write) misses (Count)
system.cpu0.mmu.itb.accesses                        0                       # Total TLB (read and write) accesses (Count)
system.cpu0.mmu.itb.walker.num_4kb_walks            0                       # Completed page walks with 4KB pages (Count)
system.cpu0.mmu.itb.walker.num_2mb_walks            0                       # Completed page walks with 2MB pages (Count)
system.cpu0.mmu.itb.walker.power_state.pwrStateResidencyTicks::UNDEFINED  10000000000                       # Cumulative time (in ticks) in various power states (Tick)
system.cpu0.power_state.pwrStateResidencyTicks::ON  10000000000                       # Cumulative time (in ticks) in various power states (Tick)
system.cpu0.thread_0.numInsts                 6970948                       # Number of Instructions committed (Count)
system.cpu0.thread_0.numOps                   6970972                       # Number of Ops committed (Count)
system.cpu0.thread_0.numMemRefs                     0                       # Number of Memory References (Count)
system.cpu0.workload.numSyscalls                   14                       # Number of system calls (Count)
system.cpu1.numCycles                        30029937                       # Number of cpu cycles simulated (Cycle)
system.cpu1.cpi                              4.307652                       # CPI: cycles per instruction (core level) ((Cycle/Count))
system.cpu1.ipc                              0.232145                       # IPC: instructions per cycle (core level) ((Count/Cycle))
system.cpu1.numWorkItemsStarted                     0                       # Number of work items this cpu started (Count)
system.cpu1.numWorkItemsCompleted                   0                       # Number of work items this cpu completed (Count)
system.cpu1.branchPred.lookups_0::NoBranch           24      0.00%      0.00% # Number of BP lookups (Count)
system.cpu1.branchPred.lookups_0::Return         2293      0.35%      0.35% # Number of BP lookups (Count)
system.cpu1.branchPred.lookups_0::CallDirect         2425      0.37%      0.72% # Number of BP lookups (Count)
system.cpu1.branchPred.lookups_0::CallIndirect           10      0.00%      0.72% # Number of BP lookups (Count)
system.cpu1.branchPred.lookups_0::DirectCond       650979     98.47%     99.19% # Number of BP lookups (Count)
system.cpu1.branchPred.lookups_0::DirectUncond         3319      0.50%     99.69% # Number of BP lookups (Count)
system.cpu1.branchPred.lookups_0::IndirectCond            0      0.00%     99.69% # Number of BP lookups (Count)
system.cpu1.branchPred.lookups_0::IndirectUncond         2061      0.31%    100.00% # Number of BP lookups (Count)
system.cpu1.branchPred.lookups_0::total        661111                       # Number of BP lookups (Count)
system.cpu1.branchPred.squashes_0::NoBranch           10      0.78%      0.78% # Number of branches that got squashed (completely removed) as an earlier branch was mispredicted. (Count)
system.cpu1.branchPred.squashes_0::Return           96      7.47%      8.25% # Number of branches that got squashed (completely removed) as an earlier branch was mispredicted. (Count)
system.cpu1.branchPred.squashes_0::CallDirect          231     17.98%     26.23% # Number of branches that got squashed (completely removed) as an earlier branch was mispredicted. (Count)
system.cpu1.branchPred.squashes_0::CallIndirect            6      0.47%     26.69% # Number of branches that got squashed (completely removed) as an earlier branch was mispredicted. (Count)
system.cpu1.branchPred.squashes_0::DirectCond          792     61.63%     88.33% # Number of branches that got squashed (completely removed) as an earlier branch was mispredicted. (Count)
system.cpu1.branchPred.squashes_0::DirectUncond          135     10.51%     98.83% # Number of branches that got squashed (completely removed) as an earlier branch was mispredicted. (Count)
system.cpu1.branchPred.squashes_0::IndirectCond            0      0.00%     98.83% # Number of branches that got squashed (completely removed) as an earlier branch was mispredicted. (Count)
system.cpu1.branchPred.squashes_0::IndirectUncond           15      1.17%    100.00% # Number of branches that got squashed (completely removed) as an earlier branch was mispredicted. (Count)
system.cpu1.branchPred.squashes_0::total         1285                       # Number of branches that got squashed (completely removed) as an earlier branch was mispredicted. (Count)
system.cpu1.branchPred.corrected_0::NoBranch           14      2.88%      2.88% # Number of branches that got corrected but not yet commited. Branches get corrected by decode or after execute. Also a branch misprediction can be detected out-of-order. Therefore, a corrected branch might not end up beeing committed in case an even earlier branch was mispredicted (Count)
system.cpu1.branchPred.corrected_0::Return            7      1.44%      4.32% # Number of branches that got corrected but not yet commited. Branches get corrected by decode or after execute. Also a branch misprediction can be detected out-of-order. Therefore, a corrected branch might not end up beeing committed in case an even earlier branch was mispredicted (Count)
system.cpu1.branchPred.corrected_0::CallDirect           93     19.14%     23.46% # Number of branches that got corrected but not yet commited. Branches get corrected by decode or after execute. Also a branch misprediction can be detected out-of-order. Therefore, a corrected branch might not end up beeing committed in case an even earlier branch was mispredicted (Count)
system.cpu1.branchPred.corrected_0::CallIndirect            4      0.82%     24.28% # Number of branches that got corrected but not yet commited. Branches get corrected by decode or after execute. Also a branch misprediction can be detected out-of-order. Therefore, a corrected branch might not end up beeing committed in case an even earlier branch was mispredicted (Count)
system.cpu1.branchPred.corrected_0::DirectCond          303     62.35%     86.63% # Number of branches that got corrected but not yet commited. Branches get corrected by decode or after execute. Also a branch misprediction can be detected out-of-order. Therefore, a corrected branch might not end up beeing committed in case an even earlier branch was mispredicted (Count)
system.cpu1.branchPred.corrected_0::DirectUncond           54     11.11%     97.74% # Number of branches that got corrected but not yet commited. Branches get corrected by decode or after execute. Also a branch misprediction can be detected out-of-order. Therefore, a corrected branch might not end up beeing committed in case an even earlier branch was mispredicted (Count)
system.cpu1.branchPred.corrected_0::IndirectCond            0      0.00%     97.74% # Number of branches that got corrected but not yet commited. Branches get corrected by decode or after execute. Also a branch misprediction can be detected out-of-order. Therefore, a corrected branch might not end up beeing committed in case an even earlier branch was mispredicted (Count)
system.cpu1.branchPred.corrected_0::IndirectUncond           11      2.26%    100.00% # Number of branches that got corrected but not yet commited. Branches get corrected by decode or after execute. Also a branch misprediction can be detected out-of-order. Therefore, a corrected branch might not end up beeing committed in case an even earlier branch was mispredicted (Count)
system.cpu1.branchPred.corrected_0::total          486                       # Number of branches that got corrected but not yet commited. Branches get corrected by decode or after execute. Also a branch misprediction can be detected out-of-order. Therefore, a corrected branch might not end up beeing committed in case an even earlier branch was mispredicted (Count)
system.cpu1.branchPred.earlyResteers_0::NoBranch            0                       # Number of branches that got redirected after decode. (Count)
system.cpu1.branchPred.earlyResteers_0::Return            0                       # Number of branches that got redirected after decode. (Count)
system.cpu1.branchPred.earlyResteers_0::CallDirect            0                       # Number of branches that got redirected after decode. (Count)
system.cpu1.branchPred.earlyResteers_0::CallIndirect            0                       # Number of branches that got redirected after decode. (Count)
system.cpu1.branchPred.earlyResteers_0::DirectCond            0                       # Number of branches that got redirected after decode. (Count)
system.cpu1.branchPred.earlyResteers_0::DirectUncond            0                       # Number of branches that got redirected after decode. (Count)
system.cpu1.branchPred.earlyResteers_0::IndirectCond            0                       # Number of branches that got redirected after decode. (Count)
system.cpu1.branchPred.earlyResteers_0::IndirectUncond            0                       # Number of branches that got redirected after decode. (Count)
system.cpu1.branchPred.earlyResteers_0::total            0                       # Number of branches that got redirected after decode. (Count)
system.cpu1.branchPred.committed_0::NoBranch           14      0.00%      0.00% # Number of branches finally committed  (Count)
system.cpu1.branchPred.committed_0::Return         2197      0.33%      0.34% # Number of branches finally committed  (Count)
system.cpu1.branchPred.committed_0::CallDirect         2194      0.33%      0.67% # Number of branches finally committed  (Count)
system.cpu1.branchPred.committed_0::CallIndirect            4      0.00%      0.67% # Number of branches finally committed  (Count)
system.cpu1.branchPred.committed_0::DirectCond       650184     98.54%     99.21% # Number of branches finally committed  (Count)
system.cpu1.branchPred.committed_0::DirectUncond         3184      0.48%     99.69% # Number of branches finally committed  (Count)
system.cpu1.branchPred.committed_0::IndirectCond            0      0.00%     99.69% # Number of branches finally committed  (Count)
system.cpu1.branchPred.committed_0::IndirectUncond         2046      0.31%    100.00% # Number of branches finally committed  (Count)
system.cpu1.branchPred.committed_0::total       659823                       # Number of branches finally committed  (Count)
system.cpu1.branchPred.mispredicted_0::NoBranch           14      2.88%      2.88% # Number of committed branches that were mispredicted. (Count)
system.cpu1.branchPred.mispredicted_0::Return            7      1.44%      4.32% # Number of committed branches that were mispredicted. (Count)
system.cpu1.branchPred.mispredicted_0::CallDirect           93     19.14%     23.46% # Number of committed branches that were mispredicted. (Count)
system.cpu1.branchPred.mispredicted_0::CallIndirect            4      0.82%     24.28% # Number of committed branches that were mispredicted. (Count)
system.cpu1.branchPred.mispredicted_0::DirectCond          303     62.35%     86.63% # Number of committed branches that were mispredicted. (Count)
system.cpu1.branchPred.mispredicted_0::DirectUncond           54     11.11%     97.74% # Number of committed branches that were mispredicted. (Count)
system.cpu1.branchPred.mispredicted_0::IndirectCond            0      0.00%     97.74% # Number of committed branches that were mispredicted. (Count)
system.cpu1.branchPred.mispredicted_0::IndirectUncond           11      2.26%    100.00% # Number of committed branches that were mispredicted. (Count)
system.cpu1.branchPred.mispredicted_0::total          486                       # Number of committed branches that were mispredicted. (Count)
system.cpu1.branchPred.targetProvider_0::NoTarget        18493      2.80%      2.80% # The component providing the target for taken branches (Count)
system.cpu1.branchPred.targetProvider_0::BTB       638284     96.55%     99.34% # The component providing the target for taken branches (Count)
system.cpu1.branchPred.targetProvider_0::RAS         2291      0.35%     99.69% # The component providing the target for taken branches (Count)
system.cpu1.branchPred.targetProvider_0::Indirect         2043      0.31%    100.00% # The component providing the target for taken branches (Count)
system.cpu1.branchPred.targetProvider_0::total       661111                       # The component providing the target for taken branches (Count)
system.cpu1.branchPred.targetWrong_0::NoBranch          421     89.19%     89.19% # Number of branches where the target was incorrect or not available at prediction time. (Count)
system.cpu1.branchPred.targetWrong_0::Return           44      9.32%     98.52% # Number of branches where the target was incorrect or not available at prediction time. (Count)
system.cpu1.branchPred.targetWrong_0::CallDirect            7      1.48%    100.00% # Number of branches where the target was incorrect or not available at prediction time. (Count)
system.cpu1.branchPred.targetWrong_0::CallIndirect            0      0.00%    100.00% # Number of branches where the target was incorrect or not available at prediction time. (Count)
system.cpu1.branchPred.targetWrong_0::DirectCond            0      0.00%    100.00% # Number of branches where the target was incorrect or not available at prediction time. (Count)
system.cpu1.branchPred.targetWrong_0::DirectUncond            0      0.00%    100.00% # Number of branches where the target was incorrect or not available at prediction time. (Count)
system.cpu1.branchPred.targetWrong_0::IndirectCond            0      0.00%    100.00% # Number of branches where the target was incorrect or not available at prediction time. (Count)
system.cpu1.branchPred.targetWrong_0::IndirectUncond            0      0.00%    100.00% # Number of branches where the target was incorrect or not available at prediction time. (Count)
system.cpu1.branchPred.targetWrong_0::total          472                       # Number of branches where the target was incorrect or not available at prediction time. (Count)
system.cpu1.branchPred.condPredicted           651003                       # Number of conditional branches predicted (Count)
system.cpu1.branchPred.condPredictedTaken       633307                       # Number of conditional branches predicted as taken (Count)
system.cpu1.branchPred.condIncorrect              486                       # Number of conditional branches incorrect (Count)
system.cpu1.branchPred.predTakenBTBMiss           176                       # Number of branches predicted taken but missed in BTB (Count)
system.cpu1.branchPred.NotTakenMispredicted          443                       # Number branches predicted 'not taken' but turned out to be taken (Count)
system.cpu1.branchPred.TakenMispredicted           43                       # Number branches predicted taken but are actually not taken (Count)
system.cpu1.branchPred.BTBLookups              661111                       # Number of BTB lookups (Count)
system.cpu1.branchPred.BTBUpdates                 407                       # Number of BTB updates (Count)
system.cpu1.branchPred.BTBHits                 641582                       # Number of BTB hits (Count)
system.cpu1.branchPred.BTBHitRatio           0.970460                       # BTB Hit Ratio (Ratio)
system.cpu1.branchPred.BTBMispredicted            289                       # Number BTB mispredictions. No target found or target wrong (Count)
system.cpu1.branchPred.indirectLookups           2071                       # Number of indirect predictor lookups. (Count)
system.cpu1.branchPred.indirectHits              2043                       # Number of indirect target hits. (Count)
system.cpu1.branchPred.indirectMisses              28                       # Number of indirect misses. (Count)
system.cpu1.branchPred.indirectMispredicted            0                       # Number of mispredicted indirect branches. (Count)
system.cpu1.branchPred.btb.lookups::NoBranch           24      0.00%      0.00% # Number of BTB lookups (Count)
system.cpu1.branchPred.btb.lookups::Return         2293      0.35%      0.35% # Number of BTB lookups (Count)
system.cpu1.branchPred.btb.lookups::CallDirect         2425      0.37%      0.72% # Number of BTB lookups (Count)
system.cpu1.branchPred.btb.lookups::CallIndirect           10      0.00%      0.72% # Number of BTB lookups (Count)
system.cpu1.branchPred.btb.lookups::DirectCond       650979     98.47%     99.19% # Number of BTB lookups (Count)
system.cpu1.branchPred.btb.lookups::DirectUncond         3319      0.50%     99.69% # Number of BTB lookups (Count)
system.cpu1.branchPred.btb.lookups::IndirectCond            0      0.00%     99.69% # Number of BTB lookups (Count)
system.cpu1.branchPred.btb.lookups::IndirectUncond         2061      0.31%    100.00% # Number of BTB lookups (Count)
system.cpu1.branchPred.btb.lookups::total       661111                       # Number of BTB lookups (Count)
system.cpu1.branchPred.btb.misses::NoBranch           24      0.12%      0.12% # Number of BTB misses (Count)
system.cpu1.branchPred.btb.misses::Return         2293     11.74%     11.86% # Number of BTB misses (Count)
system.cpu1.branchPred.btb.misses::CallDirect          292      1.50%     13.36% # Number of BTB misses (Count)
system.cpu1.branchPred.btb.misses::CallIndirect           10      0.05%     13.41% # Number of BTB misses (Count)
system.cpu1.branchPred.btb.misses::DirectCond        14685     75.20%     88.61% # Number of BTB misses (Count)
system.cpu1.branchPred.btb.misses::DirectUncond          164      0.84%     89.45% # Number of BTB misses (Count)
system.cpu1.branchPred.btb.misses::IndirectCond            0      0.00%     89.45% # Number of BTB misses (Count)
system.cpu1.branchPred.btb.misses::IndirectUncond         2061     10.55%    100.00% # Number of BTB misses (Count)
system.cpu1.branchPred.btb.misses::total        19529                       # Number of BTB misses (Count)
system.cpu1.branchPred.btb.updates::NoBranch            0      0.00%      0.00% # Number of BTB updates (Count)
system.cpu1.branchPred.btb.updates::Return            0      0.00%      0.00% # Number of BTB updates (Count)
system.cpu1.branchPred.btb.updates::CallDirect           93     22.85%     22.85% # Number of BTB updates (Count)
system.cpu1.branchPred.btb.updates::CallIndirect            0      0.00%     22.85% # Number of BTB updates (Count)
system.cpu1.branchPred.btb.updates::DirectCond          260     63.88%     86.73% # Number of BTB updates (Count)
system.cpu1.branchPred.btb.updates::DirectUncond           54     13.27%    100.00% # Number of BTB updates (Count)
system.cpu1.branchPred.btb.updates::IndirectCond            0      0.00%    100.00% # Number of BTB updates (Count)
system.cpu1.branchPred.btb.updates::IndirectUncond            0      0.00%    100.00% # Number of BTB updates (Count)
system.cpu1.branchPred.btb.updates::total          407                       # Number of BTB updates (Count)
system.cpu1.branchPred.btb.mispredict::NoBranch            0      0.00%      0.00% # Number of BTB mispredictions. No target found or target wrong. (Count)
system.cpu1.branchPred.btb.mispredict::Return            0      0.00%      0.00% # Number of BTB mispredictions. No target found or target wrong. (Count)
system.cpu1.branchPred.btb.mispredict::CallDirect           93     22.85%     22.85% # Number of BTB mispredictions. No target found or target wrong. (Count)
system.cpu1.branchPred.btb.mispredict::CallIndirect            0      0.00%     22.85% # Number of BTB mispredictions. No target found or target wrong. (Count)
system.cpu1.branchPred.btb.mispredict::DirectCond          260     63.88%     86.73% # Number of BTB mispredictions. No target found or target wrong. (Count)
system.cpu1.branchPred.btb.mispredict::DirectUncond           54     13.27%    100.00% # Number of BTB mispredictions. No target found or target wrong. (Count)
system.cpu1.branchPred.btb.mispredict::IndirectCond            0      0.00%    100.00% # Number of BTB mispredictions. No target found or target wrong. (Count)
system.cpu1.branchPred.btb.mispredict::IndirectUncond            0      0.00%    100.00% # Number of BTB mispredictions. No target found or target wrong. (Count)
system.cpu1.branchPred.btb.mispredict::total          407                       # Number of BTB mispredictions. No target found or target wrong. (Count)
system.cpu1.branchPred.btb.power_state.pwrStateResidencyTicks::UNDEFINED  10000000000                       # Cumulative time (in ticks) in various power states (Tick)
system.cpu1.branchPred.indirectBranchPred.lookups         2071                       # Number of lookups (Count)
system.cpu1.branchPred.indirectBranchPred.hits         2043                       # Number of hits of a tag (Count)
system.cpu1.branchPred.indirectBranchPred.misses           28                       # Number of misses (Count)
system.cpu1.branchPred.indirectBranchPred.targetRecords           15                       # Number of targets that where recorded/installed in the cache (Count)
system.cpu1.branchPred.indirectBranchPred.indirectRecords         2086                       # Number of indirect branches/calls recorded in the indirect hist (Count)
system.cpu1.branchPred.indirectBranchPred.speculativeOverflows            9                       # Number of times more than the allowed capacity for speculative branches/calls where in flight and destroy the path history (Count)
system.cpu1.branchPred.ras.pushes                2531                       # Number of times a PC was pushed onto the RAS (Count)
system.cpu1.branchPred.ras.pops                  2530                       # Number of times a PC was poped from the RAS (Count)
system.cpu1.branchPred.ras.squashes               333                       # Number of times the stack operation was squashed due to wrong speculation. (Count)
system.cpu1.branchPred.ras.used                  2197                       # Number of times the RAS is the provider (Count)
system.cpu1.branchPred.ras.correct               2190                       # Number of times the RAS is the provider and the prediction is correct (Count)
system.cpu1.branchPred.ras.incorrect                7                       # Number of times the RAS is the provider and the prediction is wrong (Count)
system.cpu1.commitStats0.numInsts             6971300                       # Number of instructions committed (thread level) (Count)
system.cpu1.commitStats0.numOps               6971324                       # Number of ops (including micro ops) committed (thread level) (Count)
system.cpu1.commitStats0.numInstsNotNOP             0                       # Number of instructions committed excluding NOPs or prefetches (Count)
system.cpu1.commitStats0.numOpsNotNOP               0                       # Number of Ops (including micro ops) Simulated (Count)
system.cpu1.commitStats0.cpi                 4.307652                       # CPI: cycles per instruction (thread level) ((Cycle/Count))
system.cpu1.commitStats0.ipc                 0.232145                       # IPC: instructions per cycle (thread level) ((Count/Cycle))
system.cpu1.commitStats0.numMemRefs                 0                       # Number of memory references committed (Count)
system.cpu1.commitStats0.numFpInsts                 0                       # Number of float instructions (Count)
system.cpu1.commitStats0.numIntInsts                0                       # Number of integer instructions (Count)
system.cpu1.commitStats0.numLoadInsts               0                       # Number of load instructions (Count)
system.cpu1.commitStats0.numStoreInsts              0                       # Number of store instructions (Count)
system.cpu1.commitStats0.numVecInsts                0                       # Number of vector instructions (Count)
system.cpu1.commitStats0.committedInstType::No_OpClass           56      0.00%      0.00% # Class of committed instruction. (Count)
system.cpu1.commitStats0.committedInstType::IntAlu      3834467     55.00%     55.00% # Class of committed instruction. (Count)
system.cpu1.commitStats0.committedInstType::IntMult           11      0.00%     55.00% # Class of committed instruction. (Count)
system.cpu1.commitStats0.committedInstType::IntDiv            3      0.00%     55.00% # Class of committed instruction. (Count)
system.cpu1.commitStats0.committedInstType::FloatAdd            0      0.00%     55.00% # Class of committed instruction. (Count)
system.cpu1.commitStats0.committedInstType::FloatCmp            0      0.00%     55.00% # Class of committed instruction. (Count)
system.cpu1.commitStats0.committedInstType::FloatCvt       621601      8.92%     63.92% # Class of committed instruction. (Count)
system.cpu1.commitStats0.committedInstType::FloatMult      1243202     17.83%     81.75% # Class of committed instruction. (Count)
system.cpu1.commitStats0.committedInstType::FloatMultAcc            0      0.00%     81.75% # Class of committed instruction. (Count)
system.cpu1.commitStats0.committedInstType::FloatDiv            0      0.00%     81.75% # Class of committed instruction. (Count)
system.cpu1.commitStats0.committedInstType::FloatMisc            0      0.00%     81.75% # Class of committed instruction. (Count)
system.cpu1.commitStats0.committedInstType::FloatSqrt            0      0.00%     81.75% # Class of committed instruction. (Count)
system.cpu1.commitStats0.committedInstType::SimdAdd            0      0.00%     81.75% # Class of committed instruction. (Count)
system.cpu1.commitStats0.committedInstType::SimdAddAcc            0      0.00%     81.75% # Class of committed instruction. (Count)
system.cpu1.commitStats0.committedInstType::SimdAlu            0      0.00%     81.75% # Class of committed instruction. (Count)
system.cpu1.commitStats0.committedInstType::SimdCmp            0      0.00%     81.75% # Class of committed instruction. (Count)
system.cpu1.commitStats0.committedInstType::SimdCvt            0      0.00%     81.75% # Class of committed instruction. (Count)
system.cpu1.commitStats0.committedInstType::SimdMisc            0      0.00%     81.75% # Class of committed instruction. (Count)
system.cpu1.commitStats0.committedInstType::SimdMult            0      0.00%     81.75% # Class of committed instruction. (Count)
system.cpu1.commitStats0.committedInstType::SimdMultAcc            0      0.00%     81.75% # Class of committed instruction. (Count)
system.cpu1.commitStats0.committedInstType::SimdMatMultAcc            0      0.00%     81.75% # Class of committed instruction. (Count)
system.cpu1.commitStats0.committedInstType::SimdShift            0      0.00%     81.75% # Class of committed instruction. (Count)
system.cpu1.commitStats0.committedInstType::SimdShiftAcc            0      0.00%     81.75% # Class of committed instruction. (Count)
system.cpu1.commitStats0.committedInstType::SimdDiv            0      0.00%     81.75% # Class of committed instruction. (Count)
system.cpu1.commitStats0.committedInstType::SimdSqrt            0      0.00%     81.75% # Class of committed instruction. (Count)
system.cpu1.commitStats0.committedInstType::SimdFloatAdd            0      0.00%     81.75% # Class of committed instruction. (Count)
system.cpu1.commitStats0.committedInstType::SimdFloatAlu            0      0.00%     81.75% # Class of committed instruction. (Count)
system.cpu1.commitStats0.committedInstType::SimdFloatCmp            0      0.00%     81.75% # Class of committed instruction. (Count)
system.cpu1.commitStats0.committedInstType::SimdFloatCvt            0      0.00%     81.75% # Class of committed instruction. (Count)
system.cpu1.commitStats0.committedInstType::SimdFloatDiv            0      0.00%     81.75% # Class of committed instruction. (Count)
system.cpu1.commitStats0.committedInstType::SimdFloatMisc            0      0.00%     81.75% # Class of committed instruction. (Count)
system.cpu1.commitStats0.committedInstType::SimdFloatMult            0      0.00%     81.75% # Class of committed instruction. (Count)
system.cpu1.commitStats0.committedInstType::SimdFloatMultAcc            0      0.00%     81.75% # Class of committed instruction. (Count)
system.cpu1.commitStats0.committedInstType::SimdFloatMatMultAcc            0      0.00%     81.75% # Class of committed instruction. (Count)
system.cpu1.commitStats0.committedInstType::SimdFloatSqrt            0      0.00%     81.75% # Class of committed instruction. (Count)
system.cpu1.commitStats0.committedInstType::SimdReduceAdd            0      0.00%     81.75% # Class of committed instruction. (Count)
system.cpu1.commitStats0.committedInstType::SimdReduceAlu            0      0.00%     81.75% # Class of committed instruction. (Count)
system.cpu1.commitStats0.committedInstType::SimdReduceCmp            0      0.00%     81.75% # Class of committed instruction. (Count)
system.cpu1.commitStats0.committedInstType::SimdFloatReduceAdd            0      0.00%     81.75% # Class of committed instruction. (Count)
system.cpu1.commitStats0.committedInstType::SimdFloatReduceCmp            0      0.00%     81.75% # Class of committed instruction. (Count)
system.cpu1.commitStats0.committedInstType::SimdAes            0      0.00%     81.75% # Class of committed instruction. (Count)
system.cpu1.commitStats0.committedInstType::SimdAesMix            0      0.00%     81.75% # Class of committed instruction. (Count)
system.cpu1.commitStats0.committedInstType::SimdSha1Hash            0      0.00%     81.75% # Class of committed instruction. (Count)
system.cpu1.commitStats0.committedInstType::SimdSha1Hash2            0      0.00%     81.75% # Class of committed instruction. (Count)
system.cpu1.commitStats0.committedInstType::SimdSha256Hash            0      0.00%     81.75% # Class of committed instruction. (Count)
system.cpu1.commitStats0.committedInstType::SimdSha256Hash2            0      0.00%     81.75% # Class of committed instruction. (Count)
system.cpu1.commitStats0.committedInstType::SimdShaSigma2            0      0.00%     81.75% # Class of committed instruction. (Count)
system.cpu1.commitStats0.committedInstType::SimdShaSigma3            0      0.00%     81.75% # Class of committed instruction. (Count)
system.cpu1.commitStats0.committedInstType::SimdPredAlu            0      0.00%     81.75% # Class of committed instruction. (Count)
system.cpu1.commitStats0.committedInstType::Matrix            0      0.00%     81.75% # Class of committed instruction. (Count)
system.cpu1.commitStats0.committedInstType::MatrixMov            0      0.00%     81.75% # Class of committed instruction. (Count)
system.cpu1.commitStats0.committedInstType::MatrixOP            0      0.00%     81.75% # Class of committed instruction. (Count)
system.cpu1.commitStats0.committedInstType::MemRead        20876      0.30%     82.05% # Class of committed instruction. (Count)
system.cpu1.commitStats0.committedInstType::MemWrite         5464      0.08%     82.13% # Class of committed instruction. (Count)
system.cpu1.commitStats0.committedInstType::FloatMemRead            2      0.00%     82.13% # Class of committed instruction. (Count)
system.cpu1.commitStats0.committedInstType::FloatMemWrite      1245642     17.87%    100.00% # Class of committed instruction. (Count)
system.cpu1.commitStats0.committedInstType::IprAccess            0      0.00%    100.00% # Class of committed instruction. (Count)
[...]
system.mem_ctrl.dram.bwInstRead::total        9497600                       # Instruction read bandwidth from this memory ((Byte/Second))
system.mem_ctrl.dram.bwWrite::writebacks   3955763200                       # Write bandwidth from this memory ((Byte/Second))
system.mem_ctrl.dram.bwWrite::total        3955763200                       # Write bandwidth from this memory ((Byte/Second))
system.mem_ctrl.dram.bwTotal::writebacks   3955763200                       # Total bandwidth to/from this memory ((Byte/Second))
system.mem_ctrl.dram.bwTotal::cpu0.inst       2374400                       # Total bandwidth to/from this memory ((Byte/Second))
system.mem_ctrl.dram.bwTotal::cpu0.data    1001715200                       # Total bandwidth to/from this memory ((Byte/Second))
system.mem_ctrl.dram.bwTotal::cpu1.inst       2374400                       # Total bandwidth to/from this memory ((Byte/Second))
system.mem_ctrl.dram.bwTotal::cpu1.data    1001766400                       # Total bandwidth to/from this memory ((Byte/Second))
system.mem_ctrl.dram.bwTotal::cpu2.inst       2374400                       # Total bandwidth to/from this memory ((Byte/Second))
system.mem_ctrl.dram.bwTotal::cpu2.data    1001676800                       # Total bandwidth to/from this memory ((Byte/Second))
system.mem_ctrl.dram.bwTotal::cpu3.inst       2374400                       # Total bandwidth to/from this memory ((Byte/Second))
system.mem_ctrl.dram.bwTotal::cpu3.data    1002470400                       # Total bandwidth to/from this memory ((Byte/Second))
system.mem_ctrl.dram.bwTotal::total        7972889600                       # Total bandwidth to/from this memory ((Byte/Second))
system.mem_ctrl.dram.readBursts                627671                       # Number of DRAM read bursts (Count)
system.mem_ctrl.dram.writeBursts               618060                       # Number of DRAM write bursts (Count)
system.mem_ctrl.dram.perBankRdBursts::0         39234                       # Per bank write bursts (Count)
system.mem_ctrl.dram.perBankRdBursts::1         39182                       # Per bank write bursts (Count)
system.mem_ctrl.dram.perBankRdBursts::2         39265                       # Per bank write bursts (Count)
system.mem_ctrl.dram.perBankRdBursts::3         39091                       # Per bank write bursts (Count)
system.mem_ctrl.dram.perBankRdBursts::4         39225                       # Per bank write bursts (Count)
system.mem_ctrl.dram.perBankRdBursts::5         39141                       # Per bank write bursts (Count)
system.mem_ctrl.dram.perBankRdBursts::6         39288                       # Per bank write bursts (Count)
system.mem_ctrl.dram.perBankRdBursts::7         39338                       # Per bank write bursts (Count)
system.mem_ctrl.dram.perBankRdBursts::8         39451                       # Per bank write bursts (Count)
system.mem_ctrl.dram.perBankRdBursts::9         39173                       # Per bank write bursts (Count)
system.mem_ctrl.dram.perBankRdBursts::10        39186                       # Per bank write bursts (Count)
system.mem_ctrl.dram.perBankRdBursts::11        39148                       # Per bank write bursts (Count)
system.mem_ctrl.dram.perBankRdBursts::12        39276                       # Per bank write bursts (Count)
system.mem_ctrl.dram.perBankRdBursts::13        39212                       # Per bank write bursts (Count)
system.mem_ctrl.dram.perBankRdBursts::14        39330                       # Per bank write bursts (Count)
system.mem_ctrl.dram.perBankRdBursts::15        39131                       # Per bank write bursts (Count)
system.mem_ctrl.dram.perBankWrBursts::0         38658                       # Per bank write bursts (Count)
system.mem_ctrl.dram.perBankWrBursts::1         38628                       # Per bank write bursts (Count)
system.mem_ctrl.dram.perBankWrBursts::2         38643                       # Per bank write bursts (Count)
system.mem_ctrl.dram.perBankWrBursts::3         38537                       # Per bank write bursts (Count)
system.mem_ctrl.dram.perBankWrBursts::4         38704                       # Per bank write bursts (Count)
system.mem_ctrl.dram.perBankWrBursts::5         38690                       # Per bank write bursts (Count)
system.mem_ctrl.dram.perBankWrBursts::6         38642                       # Per bank write bursts (Count)
system.mem_ctrl.dram.perBankWrBursts::7         38679                       # Per bank write bursts (Count)
system.mem_ctrl.dram.perBankWrBursts::8         38744                       # Per bank write bursts (Count)
system.mem_ctrl.dram.perBankWrBursts::9         38587                       # Per bank write bursts (Count)
system.mem_ctrl.dram.perBankWrBursts::10        38542                       # Per bank write bursts (Count)
system.mem_ctrl.dram.perBankWrBursts::11        38573                       # Per bank write bursts (Count)
system.mem_ctrl.dram.perBankWrBursts::12        38534                       # Per bank write bursts (Count)
system.mem_ctrl.dram.perBankWrBursts::13        38536                       # Per bank write bursts (Count)
system.mem_ctrl.dram.perBankWrBursts::14        38704                       # Per bank write bursts (Count)
system.mem_ctrl.dram.perBankWrBursts::15        38659                       # Per bank write bursts (Count)
system.mem_ctrl.dram.totQLat              36722867570                       # Total ticks spent queuing (Tick)
system.mem_ctrl.dram.totBusLat             3138355000                       # Total ticks spent in databus transfers (Tick)
system.mem_ctrl.dram.totMemAccLat         48491698820                       # Total ticks spent from burst creation until serviced by the DRAM (Tick)
system.mem_ctrl.dram.avgQLat                 58506.55                       # Average queueing delay per DRAM burst ((Tick/Count))
system.mem_ctrl.dram.avgBusLat                5000.00                       # Average bus latency per DRAM burst ((Tick/Count))
system.mem_ctrl.dram.avgMemAccLat            77256.55                       # Average memory access latency per DRAM burst ((Tick/Count))
system.mem_ctrl.dram.readRowHits               555621                       # Number of row buffer hits during reads (Count)
system.mem_ctrl.dram.writeRowHits              551719                       # Number of row buffer hits during writes (Count)
system.mem_ctrl.dram.readRowHitRate             88.52                       # Row buffer hit rate for reads (Ratio)
system.mem_ctrl.dram.writeRowHitRate            89.27                       # Row buffer hit rate for writes (Ratio)
system.mem_ctrl.dram.bytesPerActivate::samples       138386                       # Bytes accessed per row activation (Byte)
system.mem_ctrl.dram.bytesPerActivate::mean   576.104982                       # Bytes accessed per row activation (Byte)
system.mem_ctrl.dram.bytesPerActivate::gmean   459.558574                       # Bytes accessed per row activation (Byte)
system.mem_ctrl.dram.bytesPerActivate::stdev   325.987535                       # Bytes accessed per row activation (Byte)
system.mem_ctrl.dram.bytesPerActivate::0-127          705      0.51%      0.51% # Bytes accessed per row activation (Byte)
system.mem_ctrl.dram.bytesPerActivate::128-255        20022     14.47%     14.98% # Bytes accessed per row activation (Byte)
system.mem_ctrl.dram.bytesPerActivate::256-383        31161     22.52%     37.50% # Bytes accessed per row activation (Byte)
system.mem_ctrl.dram.bytesPerActivate::384-511         5436      3.93%     41.42% # Bytes accessed per row activation (Byte)
system.mem_ctrl.dram.bytesPerActivate::512-639         8777      6.34%     47.77% # Bytes accessed per row activation (Byte)
system.mem_ctrl.dram.bytesPerActivate::640-767         5816      4.20%     51.97% # Bytes accessed per row activation (Byte)
system.mem_ctrl.dram.bytesPerActivate::768-895        28246     20.41%     72.38% # Bytes accessed per row activation (Byte)
system.mem_ctrl.dram.bytesPerActivate::896-1023        16659     12.04%     84.42% # Bytes accessed per row activation (Byte)
system.mem_ctrl.dram.bytesPerActivate::1024-1151        21564     15.58%    100.00% # Bytes accessed per row activation (Byte)
system.mem_ctrl.dram.bytesPerActivate::total       138386                       # Bytes accessed per row activation (Byte)
system.mem_ctrl.dram.dramBytesRead           40170944                       # Total bytes read (Byte)
system.mem_ctrl.dram.dramBytesWritten        39555840                       # Total bytes written (Byte)
system.mem_ctrl.dram.avgRdBW              4017.094400                       # Average DRAM read bandwidth in MiBytes/s ((Byte/Second))
system.mem_ctrl.dram.avgWrBW              3955.584000                       # Average DRAM write bandwidth in MiBytes/s ((Byte/Second))
system.mem_ctrl.dram.peakBW                  12800.00                       # Theoretical peak bandwidth in MiByte/s ((Byte/Second))
system.mem_ctrl.dram.busUtil                    62.29                       # Data bus utilization in percentage (Ratio)
system.mem_ctrl.dram.busUtilRead                31.38                       # Data bus utilization in percentage for reads (Ratio)
system.mem_ctrl.dram.busUtilWrite               30.90                       # Data bus utilization in percentage for writes (Ratio)
system.mem_ctrl.dram.pageHitRate                88.89                       # Row buffer hit rate, read and write combined (Ratio)
system.mem_ctrl.dram.power_state.pwrStateResidencyTicks::UNDEFINED  10000000000                       # Cumulative time (in ticks) in various power states (Tick)
system.mem_ctrl.dram.rank0.actEnergy        495687360                       # Energy for activate commands per rank (pJ) (Joule)
system.mem_ctrl.dram.rank0.preEnergy        263452695                       # Energy for precharge commands per rank (pJ) (Joule)
system.mem_ctrl.dram.rank0.readEnergy      2240274960                       # Energy for read commands per rank (pJ) (Joule)
system.mem_ctrl.dram.rank0.writeEnergy     1613898720                       # Energy for write commands per rank (pJ) (Joule)
system.mem_ctrl.dram.rank0.refreshEnergy 789197760.000000                       # Energy for refresh commands per rank (pJ) (Joule)
system.mem_ctrl.dram.rank0.actBackEnergy   3907589400                       # Energy for active background per rank (pJ) (Joule)
system.mem_ctrl.dram.rank0.preBackEnergy    549398400                       # Energy for precharge background per rank (pJ) (Joule)
system.mem_ctrl.dram.rank0.actPowerDownEnergy            0                       # Energy for active power-down per rank (pJ) (Joule)
system.mem_ctrl.dram.rank0.prePowerDownEnergy            0                       # Energy for precharge power-down per rank (pJ) (Joule)
system.mem_ctrl.dram.rank0.selfRefreshEnergy            0                       # Energy for self refresh per rank (pJ) (Joule)
system.mem_ctrl.dram.rank0.totalEnergy     9859499295                       # Total energy per rank (pJ) (Joule)
system.mem_ctrl.dram.rank0.averagePower    985.949930                       # Core power per rank (mW) (Watt)
system.mem_ctrl.dram.rank0.totalIdleTime            0                       # Total Idle time Per DRAM Rank (Tick)
system.mem_ctrl.dram.rank0.pwrStateTime::IDLE   1330547355                       # Time in different power states (Tick)
system.mem_ctrl.dram.rank0.pwrStateTime::REF    333840000                       # Time in different power states (Tick)
system.mem_ctrl.dram.rank0.pwrStateTime::SREF            0                       # Time in different power states (Tick)
system.mem_ctrl.dram.rank0.pwrStateTime::PRE_PDN            0                       # Time in different power states (Tick)
system.mem_ctrl.dram.rank0.pwrStateTime::ACT   8335612645                       # Time in different power states (Tick)
system.mem_ctrl.dram.rank0.pwrStateTime::ACT_PDN            0                       # Time in different power states (Tick)
system.mem_ctrl.dram.rank1.actEnergy        492424380                       # Energy for activate commands per rank (pJ) (Joule)
system.mem_ctrl.dram.rank1.preEnergy        261722175                       # Energy for precharge commands per rank (pJ) (Joule)
system.mem_ctrl.dram.rank1.readEnergy      2241295980                       # Energy for read commands per rank (pJ) (Joule)
system.mem_ctrl.dram.rank1.writeEnergy     1612348380                       # Energy for write commands per rank (pJ) (Joule)
system.mem_ctrl.dram.rank1.refreshEnergy 789197760.000000                       # Energy for refresh commands per rank (pJ) (Joule)
system.mem_ctrl.dram.rank1.actBackEnergy   3909187110                       # Energy for active background per rank (pJ) (Joule)
system.mem_ctrl.dram.rank1.preBackEnergy    548052960                       # Energy for precharge background per rank (pJ) (Joule)
system.mem_ctrl.dram.rank1.actPowerDownEnergy            0                       # Energy for active power-down per rank (pJ) (Joule)
system.mem_ctrl.dram.rank1.prePowerDownEnergy            0                       # Energy for precharge power-down per rank (pJ) (Joule)
system.mem_ctrl.dram.rank1.selfRefreshEnergy            0                       # Energy for self refresh per rank (pJ) (Joule)
system.mem_ctrl.dram.rank1.totalEnergy     9854228745                       # Total energy per rank (pJ) (Joule)
system.mem_ctrl.dram.rank1.averagePower    985.422875                       # Core power per rank (mW) (Watt)
system.mem_ctrl.dram.rank1.totalIdleTime            0                       # Total Idle time Per DRAM Rank (Tick)
system.mem_ctrl.dram.rank1.pwrStateTime::IDLE   1326726455                       # Time in different power states (Tick)
system.mem_ctrl.dram.rank1.pwrStateTime::REF    333840000                       # Time in different power states (Tick)
system.mem_ctrl.dram.rank1.pwrStateTime::SREF            0                       # Time in different power states (Tick)
system.mem_ctrl.dram.rank1.pwrStateTime::PRE_PDN            0                       # Time in different power states (Tick)
system.mem_ctrl.dram.rank1.pwrStateTime::ACT   8339433545                       # Time in different power states (Tick)
system.mem_ctrl.dram.rank1.pwrStateTime::ACT_PDN            0                       # Time in different power states (Tick)
system.mem_ctrl.power_state.pwrStateResidencyTicks::UNDEFINED  10000000000                       # Cumulative time (in ticks) in various power states (Tick)
system.membus.transDist::ReadResp                5520                       # Transaction distribution (Count)
system.membus.transDist::WritebackDirty        618088                       # Transaction distribution (Count)
system.membus.transDist::CleanEvict              3759                       # Transaction distribution (Count)
system.membus.transDist::ReadExReq             622162                       # Transaction distribution (Count)
system.membus.transDist::ReadExResp            622156                       # Transaction distribution (Count)
system.membus.transDist::ReadSharedReq           5520                       # Transaction distribution (Count)
system.membus.pktCount_system.l2cache.mem_side_port::system.mem_ctrl.port      1877205                       # Packet count per connected requestor and responder (Count)
system.membus.pktSize_system.l2cache.mem_side_port::system.mem_ctrl.port     79728896                       # Cumulative packet size per connected requestor and responder (Byte)
system.membus.snoops                                0                       # Total snoops (Count)
system.membus.snoopTraffic                          0                       # Total snoop traffic (Byte)
system.membus.snoopFanout::samples             627682                       # Request fanout histogram (Count)
system.membus.snoopFanout::mean                     0                       # Request fanout histogram (Count)
system.membus.snoopFanout::stdev                    0                       # Request fanout histogram (Count)
system.membus.snoopFanout::underflows               0      0.00%      0.00% # Request fanout histogram (Count)
system.membus.snoopFanout::0                   627682    100.00%    100.00% # Request fanout histogram (Count)
system.membus.snoopFanout::1                        0      0.00%    100.00% # Request fanout histogram (Count)
system.membus.snoopFanout::overflows                0      0.00%    100.00% # Request fanout histogram (Count)
system.membus.snoopFanout::min_value                0                       # Request fanout histogram (Count)
system.membus.snoopFanout::max_value                0                       # Request fanout histogram (Count)
system.membus.snoopFanout::total               627682                       # Request fanout histogram (Count)
system.membus.power_state.pwrStateResidencyTicks::UNDEFINED  10000000000                       # Cumulative time (in ticks) in various power states (Tick)
system.membus.reqLayer0.occupancy          1239386373                       # Layer occupancy (ticks) (Tick)
system.membus.reqLayer0.utilization               0.1                       # Layer utilization (Ratio)
system.membus.respLayer0.occupancy         1176113291                       # Layer occupancy (ticks) (Tick)
system.membus.respLayer0.utilization              0.1                       # Layer utilization (Ratio)
system.membus.snoop_filter.totRequests        1249529                       # Total number of requests made to the snoop filter. (Count)
system.membus.snoop_filter.hitSingleRequests       621866                       # Number of requests hitting in the snoop filter with a single holder of the requested data. (Count)
system.membus.snoop_filter.hitMultiRequests            0                       # Number of requests hitting in the snoop filter with multiple (>1) holders of the requested data. (Count)
system.membus.snoop_filter.totSnoops                0                       # Total number of snoops made to the snoop filter. (Count)
system.membus.snoop_filter.hitSingleSnoops            0                       # Number of snoops hitting in the snoop filter with a single holder of the requested data. (Count)
system.membus.snoop_filter.hitMultiSnoops            0                       # Number of snoops hitting in the snoop filter with multiple (>1) holders of the requested data. (Count)
system.workload.inst.arm                            0                       # number of arm instructions executed (Count)
system.workload.inst.quiesce                        0                       # number of quiesce instructions executed (Count)
system.cpu0.idleCycles                       22488050                       # Total number of cycles that the object has spent stopped (Unspecified)
system.cpu0.tickCycles                        7541883                       # Number of cycles that the object actually ticked (Unspecified)
system.cpu1.idleCycles                       22487794                       # Total number of cycles that the object has spent stopped (Unspecified)
system.cpu1.tickCycles                        7542143                       # Number of cycles that the object actually ticked (Unspecified)
system.cpu2.idleCycles                       22488770                       # Total number of cycles that the object has spent stopped (Unspecified)
system.cpu2.tickCycles                        7541260                       # Number of cycles that the object actually ticked (Unspecified)
system.cpu3.idleCycles                       22482525                       # Total number of cycles that the object has spent stopped (Unspecified)
system.cpu3.tickCycles                        7547449                       # Number of cycles that the object actually ticked (Unspecified)

---------- End Simulation Statistics   ----------
